<?xml version="1.0" encoding="UTF-8"?>

<!-- generated on 2025-09-21 13:21:23.486409 by osmWebWizard.py UNKNOWN
<configuration>
    <net-file value="/home/vishwajit/Workspace/SIH2025/FDRL/sumo_files/2025-09-21-13-21-18/osm.net.xml.gz"/>
    <output-trip-file value="/home/vishwajit/Workspace/SIH2025/FDRL/sumo_files/2025-09-21-13-21-18/osm.motorcycle.trips.xml"/>
    <route-file value="/home/vishwajit/Workspace/SIH2025/FDRL/sumo_files/2025-09-21-13-21-18/osm.motorcycle.rou.xml"/>
    <prefix value="motorcycle"/>
    <trip-attributes value="departLane=&quot;best&quot;"/>
    <fringe-start-attributes value="departSpeed=&quot;max&quot;"/>
    <vehicle-class value="motorcycle"/>
    <fringe-factor value="5"/>
    <edge-permission value="motorcycle"/>
    <via-edge-types value="highway.motorway,highway.motorway_link,highway.trunk_link,highway.primary_link,highway.secondary_link,highway.tertiary_link"/>
    <seed value="43"/>
    <max-distance value="1200.0"/>
    <remove-loops value="True"/>
    <insertion-density value="30.0"/>
</configuration>
-->

<routes xmlns:xsi="http://www.w3.org/2001/XMLSchema-instance" xsi:noNamespaceSchemaLocation="http://sumo.dlr.de/xsd/routes_file.xsd">
    <vType id="motorcycle_motorcycle" vClass="motorcycle"/>
    <trip id="motorcycle0" depart="0.00" from="-1126750041#1" to="1265177027#3" departLane="best" type="motorcycle_motorcycle" departSpeed="max"/>
    <trip id="motorcycle1" depart="4.94" from="-608078456" to="1192349845" departLane="best" type="motorcycle_motorcycle" departSpeed="max"/>
    <trip id="motorcycle2" depart="9.88" from="-220589497#2" to="438962717#1" departLane="best" type="motorcycle_motorcycle" departSpeed="max"/>
    <trip id="motorcycle3" depart="14.82" from="1126750042" to="214085919#5" departLane="best" type="motorcycle_motorcycle"/>
    <trip id="motorcycle4" depart="19.77" from="-439133784#1" to="-1265177027#0" departLane="best" type="motorcycle_motorcycle" departSpeed="max"/>
    <trip id="motorcycle5" depart="24.71" from="214670750" to="317349751#1" departLane="best" type="motorcycle_motorcycle" departSpeed="max"/>
    <trip id="motorcycle6" depart="29.65" from="-725293625#1" to="1192260787" departLane="best" type="motorcycle_motorcycle" departSpeed="max"/>
    <trip id="motorcycle7" depart="34.59" from="1265177027#0" to="124861812#2" departLane="best" type="motorcycle_motorcycle"/>
    <trip id="motorcycle8" depart="39.53" from="-725293625#1" to="124858284#7" departLane="best" type="motorcycle_motorcycle" departSpeed="max"/>
    <trip id="motorcycle9" depart="44.47" from="-220589497#2" to="-124611620" departLane="best" type="motorcycle_motorcycle" departSpeed="max"/>
    <trip id="motorcycle10" depart="49.42" from="317349751#1" to="1243425888" departLane="best" type="motorcycle_motorcycle"/>
    <trip id="motorcycle11" depart="54.36" from="1238879358#0" to="665946597#0" departLane="best" type="motorcycle_motorcycle" departSpeed="max"/>
    <trip id="motorcycle12" depart="59.30" from="124861812#2" to="-124861809#1" departLane="best" type="motorcycle_motorcycle"/>
    <trip id="motorcycle13" depart="64.24" from="317349751#5" to="-725363522#1" departLane="best" type="motorcycle_motorcycle"/>
    <trip id="motorcycle14" depart="69.18" from="-788485782#5" to="1274598669#1" departLane="best" type="motorcycle_motorcycle"/>
    <trip id="motorcycle15" depart="74.12" from="1274598669#0" to="-124858284#0" departLane="best" type="motorcycle_motorcycle"/>
    <trip id="motorcycle16" depart="79.07" from="-124861803#2" to="124861817#2" departLane="best" type="motorcycle_motorcycle"/>
    <trip id="motorcycle17" depart="84.01" from="-1238879358#1" to="1192260787" departLane="best" type="motorcycle_motorcycle"/>
    <trip id="motorcycle18" depart="88.95" from="1274598669#0" to="725293625#1" departLane="best" type="motorcycle_motorcycle"/>
    <trip id="motorcycle19" depart="93.89" from="725363523#2" to="124861817#1" departLane="best" type="motorcycle_motorcycle"/>
    <trip id="motorcycle20" depart="98.83" from="-1189813847" to="-124861823#2" departLane="best" type="motorcycle_motorcycle" departSpeed="max"/>
    <trip id="motorcycle21" depart="103.77" from="-1189813847" to="124861825#1" departLane="best" type="motorcycle_motorcycle" departSpeed="max"/>
    <trip id="motorcycle22" depart="108.72" from="-124611617#1" to="220589498#0" departLane="best" type="motorcycle_motorcycle"/>
    <trip id="motorcycle23" depart="113.66" from="-49591929" to="-124611611#1" departLane="best" type="motorcycle_motorcycle" departSpeed="max"/>
    <trip id="motorcycle24" depart="118.60" from="725363526#0" to="-124861823#1" departLane="best" type="motorcycle_motorcycle"/>
    <trip id="motorcycle25" depart="123.54" from="124861824#0" to="788485782#3" departLane="best" type="motorcycle_motorcycle"/>
    <trip id="motorcycle26" depart="128.48" from="-214085922#2" to="1338550401" departLane="best" type="motorcycle_motorcycle"/>
    <trip id="motorcycle27" depart="133.42" from="-665946598" to="665946597#2" departLane="best" type="motorcycle_motorcycle"/>
    <trip id="motorcycle28" depart="138.37" from="124861817#4" to="320394882" departLane="best" type="motorcycle_motorcycle"/>
    <trip id="motorcycle29" depart="143.31" from="124861821#2" to="-124861809#1" departLane="best" type="motorcycle_motorcycle"/>
    <trip id="motorcycle30" depart="148.25" from="-124861817#3" to="665946597#1" departLane="best" type="motorcycle_motorcycle"/>
    <trip id="motorcycle31" depart="153.19" from="-317349751#6" to="1265177026#0" departLane="best" type="motorcycle_motorcycle" departSpeed="max"/>
    <trip id="motorcycle32" depart="158.13" from="1238879358#0" to="665546552" departLane="best" type="motorcycle_motorcycle" departSpeed="max"/>
    <trip id="motorcycle33" depart="163.07" from="-214085919#5" to="-788485782#2" departLane="best" type="motorcycle_motorcycle" departSpeed="max"/>
    <trip id="motorcycle34" depart="168.02" from="-124861803#2" to="-1265177027#0" departLane="best" type="motorcycle_motorcycle"/>
    <trip id="motorcycle35" depart="172.96" from="214085922#3" to="1303633133" departLane="best" type="motorcycle_motorcycle"/>
    <trip id="motorcycle36" depart="177.90" from="725363523#1" to="124861825#2" departLane="best" type="motorcycle_motorcycle"/>
    <trip id="motorcycle37" depart="182.84" from="725363522#0" to="-214085922#4" departLane="best" type="motorcycle_motorcycle"/>
    <trip id="motorcycle38" depart="187.78" from="-124861803#3" to="-214085922#0" departLane="best" type="motorcycle_motorcycle"/>
    <trip id="motorcycle39" depart="192.72" from="-124861823#1" to="1187806250" departLane="best" type="motorcycle_motorcycle"/>
    <trip id="motorcycle40" depart="197.67" from="-1187806250" to="-1238879358#4" departLane="best" type="motorcycle_motorcycle" departSpeed="max"/>
    <trip id="motorcycle41" depart="202.61" from="1126750041#0" to="124861817#5" departLane="best" type="motorcycle_motorcycle"/>
    <trip id="motorcycle42" depart="207.55" from="-725293625#1" to="665546552" departLane="best" type="motorcycle_motorcycle" departSpeed="max"/>
    <trip id="motorcycle43" depart="212.49" from="-1243425888" to="214085922#0" departLane="best" type="motorcycle_motorcycle" departSpeed="max"/>
    <trip id="motorcycle44" depart="217.43" from="124861817#3" to="-124861823#1" departLane="best" type="motorcycle_motorcycle"/>
    <trip id="motorcycle45" depart="222.37" from="124858284#0" to="-214085913#0" departLane="best" type="motorcycle_motorcycle"/>
    <trip id="motorcycle46" depart="227.32" from="-124861825#5" to="-124861823#5" departLane="best" type="motorcycle_motorcycle"/>
    <trip id="motorcycle47" depart="232.26" from="1187808932" to="1265177027#1" departLane="best" type="motorcycle_motorcycle" departSpeed="max"/>
    <trip id="motorcycle48" depart="237.20" from="-124861825#9" to="1274598669#0" departLane="best" type="motorcycle_motorcycle"/>
    <trip id="motorcycle49" depart="242.14" from="-1265177026#1" to="124861823#5" departLane="best" type="motorcycle_motorcycle"/>
    <trip id="motorcycle50" depart="247.08" from="124861823#5" to="1189813847" departLane="best" type="motorcycle_motorcycle"/>
    <trip id="motorcycle51" depart="252.02" from="124861796#0" to="-317349751#2" departLane="best" type="motorcycle_motorcycle"/>
    <trip id="motorcycle52" depart="256.97" from="124861812#0" to="-439133784#0" departLane="best" type="motorcycle_motorcycle" departSpeed="max"/>
    <trip id="motorcycle53" depart="261.91" from="-665546552" to="1177177536#1" departLane="best" type="motorcycle_motorcycle" departSpeed="max"/>
    <trip id="motorcycle54" depart="266.85" from="-788485782#1" to="124858284#7" departLane="best" type="motorcycle_motorcycle"/>
    <trip id="motorcycle55" depart="271.79" from="-124861817#5" to="665670054" departLane="best" type="motorcycle_motorcycle" departSpeed="max"/>
    <trip id="motorcycle56" depart="276.73" from="124861796#0" to="317349751#1" departLane="best" type="motorcycle_motorcycle"/>
    <trip id="motorcycle57" depart="281.67" from="124861817#3" to="608078458" departLane="best" type="motorcycle_motorcycle"/>
    <trip id="motorcycle58" depart="286.62" from="317349751#3" to="-214085956" departLane="best" type="motorcycle_motorcycle"/>
    <trip id="motorcycle59" depart="291.56" from="788485782#1" to="124861817#5" departLane="best" type="motorcycle_motorcycle"/>
    <trip id="motorcycle60" depart="296.50" from="124861823#6" to="1238879358#5" departLane="best" type="motorcycle_motorcycle"/>
    <trip id="motorcycle61" depart="301.44" from="-124861825#2" to="1192260787" departLane="best" type="motorcycle_motorcycle"/>
    <trip id="motorcycle62" depart="306.38" from="-214085922#4" to="1177177536#1" departLane="best" type="motorcycle_motorcycle"/>
    <trip id="motorcycle63" depart="311.32" from="-124861825#8" to="-124861823#7" departLane="best" type="motorcycle_motorcycle"/>
    <trip id="motorcycle64" depart="316.27" from="151522859#1" to="-788485782#7" departLane="best" type="motorcycle_motorcycle"/>
    <trip id="motorcycle65" depart="321.21" from="-220589497#1" to="220589494#0" departLane="best" type="motorcycle_motorcycle"/>
    <trip id="motorcycle66" depart="326.15" from="124861817#2" to="1177177536#1" departLane="best" type="motorcycle_motorcycle"/>
    <trip id="motorcycle67" depart="331.09" from="-124861824#0" to="124861809#1" departLane="best" type="motorcycle_motorcycle"/>
    <trip id="motorcycle68" depart="336.03" from="-124861796#2" to="608078456" departLane="best" type="motorcycle_motorcycle"/>
    <trip id="motorcycle69" depart="340.97" from="1303443733" to="-214085919#4" departLane="best" type="motorcycle_motorcycle" departSpeed="max"/>
    <trip id="motorcycle70" depart="345.92" from="-124858284#9" to="665946597#2" departLane="best" type="motorcycle_motorcycle"/>
    <trip id="motorcycle71" depart="350.86" from="1238879358#0" to="1338550401" departLane="best" type="motorcycle_motorcycle" departSpeed="max"/>
    <trip id="motorcycle72" depart="355.80" from="49591851" to="-220589498#1" departLane="best" type="motorcycle_motorcycle" departSpeed="max"/>
    <trip id="motorcycle73" depart="360.74" from="-665946598" to="665546552" departLane="best" type="motorcycle_motorcycle"/>
    <trip id="motorcycle74" depart="365.68" from="22842320#0" to="317349751#6" departLane="best" type="motorcycle_motorcycle" departSpeed="max"/>
    <trip id="motorcycle75" depart="370.62" from="-725363522#0" to="-124861823#5" departLane="best" type="motorcycle_motorcycle"/>
    <trip id="motorcycle76" depart="375.57" from="-439133784#1" to="1187806250" departLane="best" type="motorcycle_motorcycle" departSpeed="max"/>
    <trip id="motorcycle77" depart="380.51" from="-608078458" to="124861823#6" departLane="best" type="motorcycle_motorcycle" departSpeed="max"/>
    <trip id="motorcycle78" depart="385.45" from="-1192349845" to="124861825#6" departLane="best" type="motorcycle_motorcycle" departSpeed="max"/>
    <trip id="motorcycle79" depart="390.39" from="-665670054" to="317349751#0" departLane="best" type="motorcycle_motorcycle" departSpeed="max"/>
    <trip id="motorcycle80" depart="395.33" from="-1303633133" to="124861825#10" departLane="best" type="motorcycle_motorcycle" departSpeed="max"/>
    <trip id="motorcycle81" depart="400.27" from="-124861817#3" to="1274598669#0" departLane="best" type="motorcycle_motorcycle"/>
    <trip id="motorcycle82" depart="405.22" from="-665546552" to="725293625#1" departLane="best" type="motorcycle_motorcycle" departSpeed="max"/>
    <trip id="motorcycle83" depart="410.16" from="317349751#2" to="317349751#6" departLane="best" type="motorcycle_motorcycle"/>
    <trip id="motorcycle84" depart="415.10" from="-124861802" to="124861821#1" departLane="best" type="motorcycle_motorcycle"/>
    <trip id="motorcycle85" depart="420.04" from="-320394882" to="-124858284#4" departLane="best" type="motorcycle_motorcycle"/>
    <trip id="motorcycle86" depart="424.98" from="124858284#7" to="-124861803#0" departLane="best" type="motorcycle_motorcycle"/>
    <trip id="motorcycle87" depart="429.92" from="317349751#3" to="665670054" departLane="best" type="motorcycle_motorcycle"/>
    <trip id="motorcycle88" depart="434.87" from="-1187815339" to="49591929" departLane="best" type="motorcycle_motorcycle" departSpeed="max"/>
    <trip id="motorcycle89" depart="439.81" from="124861803#2" to="-214085922#5" departLane="best" type="motorcycle_motorcycle"/>
    <trip id="motorcycle90" depart="444.75" from="-1265177027#1" to="124861817#4" departLane="best" type="motorcycle_motorcycle"/>
    <trip id="motorcycle91" depart="449.69" from="1303443733" to="124861818#1" departLane="best" type="motorcycle_motorcycle" departSpeed="max"/>
    <trip id="motorcycle92" depart="454.63" from="-317349751#6" to="124861821#1" departLane="best" type="motorcycle_motorcycle" departSpeed="max"/>
    <trip id="motorcycle93" depart="459.57" from="214670750" to="124861825#1" departLane="best" type="motorcycle_motorcycle" departSpeed="max"/>
    <trip id="motorcycle94" depart="464.52" from="-608078456" to="124861809#0" departLane="best" type="motorcycle_motorcycle" departSpeed="max"/>
    <trip id="motorcycle95" depart="469.46" from="-124861817#2" to="1177177536#0" departLane="best" type="motorcycle_motorcycle"/>
    <trip id="motorcycle96" depart="474.40" from="214085922#6" to="1189813847" departLane="best" type="motorcycle_motorcycle"/>
    <trip id="motorcycle97" depart="479.34" from="-1091258063" to="220589507" departLane="best" type="motorcycle_motorcycle" departSpeed="max"/>
    <trip id="motorcycle98" depart="484.28" from="1187808932" to="214085922#3" departLane="best" type="motorcycle_motorcycle" departSpeed="max"/>
    <trip id="motorcycle99" depart="489.22" from="-1238879358#1" to="1177177536#1" departLane="best" type="motorcycle_motorcycle"/>
    <trip id="motorcycle100" depart="494.17" from="-608078456" to="-124861823#0" departLane="best" type="motorcycle_motorcycle" departSpeed="max"/>
    <trip id="motorcycle101" depart="499.11" from="124861814" to="1192349845" departLane="best" type="motorcycle_motorcycle" departSpeed="max"/>
    <trip id="motorcycle102" depart="504.05" from="-788485782#3" to="-214085956" departLane="best" type="motorcycle_motorcycle"/>
    <trip id="motorcycle103" depart="508.99" from="124861825#8" to="-1177177536#0" departLane="best" type="motorcycle_motorcycle"/>
    <trip id="motorcycle104" depart="513.93" from="-214085913#1" to="-124861812#0" departLane="best" type="motorcycle_motorcycle"/>
    <trip id="motorcycle105" depart="518.87" from="-1189813847" to="-1177177536#0" departLane="best" type="motorcycle_motorcycle" departSpeed="max"/>
    <trip id="motorcycle106" depart="523.82" from="-788485782#3" to="-124861796#2" departLane="best" type="motorcycle_motorcycle"/>
    <trip id="motorcycle107" depart="528.76" from="-1238879358#3" to="1171540750" departLane="best" type="motorcycle_motorcycle"/>
    <trip id="motorcycle108" depart="533.70" from="124861812#2" to="-214085913#0" departLane="best" type="motorcycle_motorcycle"/>
    <trip id="motorcycle109" depart="538.64" from="788485782#4" to="-788485782#7" departLane="best" type="motorcycle_motorcycle"/>
    <trip id="motorcycle110" depart="543.58" from="22842320#1" to="-665546553" departLane="best" type="motorcycle_motorcycle"/>
    <trip id="motorcycle111" depart="548.52" from="-1265177027#3" to="1171540750" departLane="best" type="motorcycle_motorcycle"/>
    <trip id="motorcycle112" depart="553.47" from="-1107662879" to="151522859#1" departLane="best" type="motorcycle_motorcycle"/>
    <trip id="motorcycle113" depart="558.41" from="-1189813847" to="124861817#5" departLane="best" type="motorcycle_motorcycle" departSpeed="max"/>
    <trip id="motorcycle114" depart="563.35" from="-1187806250" to="1171540750" departLane="best" type="motorcycle_motorcycle" departSpeed="max"/>
    <trip id="motorcycle115" depart="568.29" from="-124861825#10" to="725293625#0" departLane="best" type="motorcycle_motorcycle"/>
    <trip id="motorcycle116" depart="573.23" from="-214085908#0" to="-788485782#6" departLane="best" type="motorcycle_motorcycle"/>
    <trip id="motorcycle117" depart="578.17" from="-214085908#1" to="-124861823#1" departLane="best" type="motorcycle_motorcycle" departSpeed="max"/>
    <trip id="motorcycle118" depart="583.12" from="-1265177026#0" to="-665546553" departLane="best" type="motorcycle_motorcycle"/>
    <trip id="motorcycle119" depart="588.06" from="-124861817#5" to="-124861823#0" departLane="best" type="motorcycle_motorcycle" departSpeed="max"/>
    <trip id="motorcycle120" depart="593.00" from="-214085919#5" to="124858284#4" departLane="best" type="motorcycle_motorcycle" departSpeed="max"/>
    <trip id="motorcycle121" depart="597.94" from="-1265177027#3" to="-124861812#2" departLane="best" type="motorcycle_motorcycle"/>
    <trip id="motorcycle122" depart="602.88" from="317349751#4" to="1177177536#1" departLane="best" type="motorcycle_motorcycle"/>
    <trip id="motorcycle123" depart="607.82" from="-439133784#1" to="-1265177026#0" departLane="best" type="motorcycle_motorcycle" departSpeed="max"/>
    <trip id="motorcycle124" depart="612.77" from="124861812#0" to="151522859#0" departLane="best" type="motorcycle_motorcycle" departSpeed="max"/>
    <trip id="motorcycle125" depart="617.71" from="-124861825#3" to="124861821#0" departLane="best" type="motorcycle_motorcycle"/>
    <trip id="motorcycle126" depart="622.65" from="-1192349845" to="-665546553" departLane="best" type="motorcycle_motorcycle" departSpeed="max"/>
    <trip id="motorcycle127" depart="627.59" from="-22842320#1" to="1126750041#1" departLane="best" type="motorcycle_motorcycle"/>
    <trip id="motorcycle128" depart="632.53" from="665546553" to="-1238879358#0" departLane="best" type="motorcycle_motorcycle" departSpeed="max"/>
    <trip id="motorcycle129" depart="637.47" from="1265177026#0" to="-124861825#8" departLane="best" type="motorcycle_motorcycle"/>
    <trip id="motorcycle130" depart="642.42" from="-124861809#0" to="-788485782#3" departLane="best" type="motorcycle_motorcycle"/>
    <trip id="motorcycle131" depart="647.36" from="124858284#1" to="-665546553" departLane="best" type="motorcycle_motorcycle"/>
    <trip id="motorcycle132" depart="652.30" from="-725363522#1" to="1238879358#4" departLane="best" type="motorcycle_motorcycle"/>
    <trip id="motorcycle133" depart="657.24" from="632266777#1" to="124861796#0" departLane="best" type="motorcycle_motorcycle"/>
    <trip id="motorcycle134" depart="662.18" from="-1265177026#0" to="124861821#3" departLane="best" type="motorcycle_motorcycle"/>
    <trip id="motorcycle135" depart="667.12" from="124861823#3" to="-1177177536#0" departLane="best" type="motorcycle_motorcycle"/>
    <trip id="motorcycle136" depart="672.07" from="-1187806250" to="1303633133" departLane="best" type="motorcycle_motorcycle" departSpeed="max"/>
    <trip id="motorcycle137" depart="677.01" from="-1243425888" to="788485782#3" departLane="best" type="motorcycle_motorcycle" departSpeed="max"/>
    <trip id="motorcycle138" depart="681.95" from="-124861825#2" to="124861824#0" departLane="best" type="motorcycle_motorcycle"/>
    <trip id="motorcycle139" depart="686.89" from="-124861825#8" to="-1265177026#0" departLane="best" type="motorcycle_motorcycle"/>
    <trip id="motorcycle140" depart="691.83" from="-439133784#1" to="1192349845" departLane="best" type="motorcycle_motorcycle" departSpeed="max"/>
    <trip id="motorcycle141" depart="696.77" from="-1177177536#1" to="-124861825#7" departLane="best" type="motorcycle_motorcycle" departSpeed="max"/>
    <trip id="motorcycle142" depart="701.72" from="-220589498#1" to="124611611#4" departLane="best" type="motorcycle_motorcycle"/>
    <trip id="motorcycle143" depart="706.66" from="124861817#3" to="-124861823#5" departLane="best" type="motorcycle_motorcycle"/>
    <trip id="motorcycle144" depart="711.60" from="-49591929" to="1091258062" departLane="best" type="motorcycle_motorcycle" departSpeed="max"/>
    <trip id="motorcycle145" depart="716.54" from="-1189813847" to="665670054" departLane="best" type="motorcycle_motorcycle" departSpeed="max"/>
    <trip id="motorcycle146" depart="721.48" from="1238879358#0" to="214085919#5" departLane="best" type="motorcycle_motorcycle" departSpeed="max"/>
    <trip id="motorcycle147" depart="726.42" from="-1303633133" to="-22842320#0" departLane="best" type="motorcycle_motorcycle" departSpeed="max"/>
    <trip id="motorcycle148" depart="731.37" from="-317349751#2" to="124861821#0" departLane="best" type="motorcycle_motorcycle"/>
    <trip id="motorcycle149" depart="736.31" from="-608078456" to="1274598669#0" departLane="best" type="motorcycle_motorcycle" departSpeed="max"/>
    <trip id="motorcycle150" depart="741.25" from="788485782#2" to="124861809#0" departLane="best" type="motorcycle_motorcycle"/>
    <trip id="motorcycle151" depart="746.19" from="151522858" to="725293625#1" departLane="best" type="motorcycle_motorcycle"/>
    <trip id="motorcycle152" depart="751.13" from="725363524#0" to="-788485782#3" departLane="best" type="motorcycle_motorcycle"/>
    <trip id="motorcycle153" depart="756.07" from="214085956" to="1265177027#3" departLane="best" type="motorcycle_motorcycle"/>
    <trip id="motorcycle154" depart="761.02" from="317349751#5" to="608078458" departLane="best" type="motorcycle_motorcycle"/>
    <trip id="motorcycle155" depart="765.96" from="-214085922#2" to="214085908#0" departLane="best" type="motorcycle_motorcycle"/>
    <trip id="motorcycle156" depart="770.90" from="214085922#3" to="1177177536#1" departLane="best" type="motorcycle_motorcycle"/>
    <trip id="motorcycle157" depart="775.84" from="632266777#1" to="1243425888" departLane="best" type="motorcycle_motorcycle"/>
    <trip id="motorcycle158" depart="780.78" from="-124861824#1" to="1171540750" departLane="best" type="motorcycle_motorcycle"/>
    <trip id="motorcycle159" depart="785.72" from="-214085919#5" to="124861821#1" departLane="best" type="motorcycle_motorcycle" departSpeed="max"/>
    <trip id="motorcycle160" depart="790.67" from="-214085919#1" to="1192260787" departLane="best" type="motorcycle_motorcycle"/>
    <trip id="motorcycle161" depart="795.61" from="-1189813847" to="-665546553" departLane="best" type="motorcycle_motorcycle" departSpeed="max"/>
    <trip id="motorcycle162" depart="800.55" from="-1238879358#1" to="1189813847" departLane="best" type="motorcycle_motorcycle"/>
    <trip id="motorcycle163" depart="805.49" from="-1126750041#1" to="788485782#3" departLane="best" type="motorcycle_motorcycle" departSpeed="max"/>
    <trip id="motorcycle164" depart="810.43" from="-124861817#5" to="-1177177536#0" departLane="best" type="motorcycle_motorcycle" departSpeed="max"/>
    <trip id="motorcycle165" depart="815.37" from="1187808932" to="665546552" departLane="best" type="motorcycle_motorcycle" departSpeed="max"/>
    <trip id="motorcycle166" depart="820.32" from="-1187806250" to="1189813847" departLane="best" type="motorcycle_motorcycle" departSpeed="max"/>
    <trip id="motorcycle167" depart="825.26" from="214085949" to="-214670750" departLane="best" type="motorcycle_motorcycle"/>
    <trip id="motorcycle168" depart="830.20" from="-1243425888" to="-124858284#3" departLane="best" type="motorcycle_motorcycle" departSpeed="max"/>
    <trip id="motorcycle169" depart="835.14" from="124861817#1" to="214085922#0" departLane="best" type="motorcycle_motorcycle"/>
    <trip id="motorcycle170" depart="840.08" from="-49591929" to="220589494#0" departLane="best" type="motorcycle_motorcycle" departSpeed="max"/>
    <trip id="motorcycle171" depart="845.02" from="-214085919#5" to="608078458" departLane="best" type="motorcycle_motorcycle" departSpeed="max"/>
    <trip id="motorcycle172" depart="849.97" from="124861825#1" to="124861818#1" departLane="best" type="motorcycle_motorcycle"/>
    <trip id="motorcycle173" depart="854.91" from="214085972" to="124861825#5" departLane="best" type="motorcycle_motorcycle"/>
    <trip id="motorcycle174" depart="859.85" from="-439133784#1" to="-665546553" departLane="best" type="motorcycle_motorcycle" departSpeed="max"/>
    <trip id="motorcycle175" depart="864.79" from="214085908#0" to="-788485782#5" departLane="best" type="motorcycle_motorcycle"/>
    <trip id="motorcycle176" depart="869.73" from="-1189813847" to="317349751#6" departLane="best" type="motorcycle_motorcycle" departSpeed="max"/>
    <trip id="motorcycle177" depart="874.67" from="124611611#2" to="-124611617#2" departLane="best" type="motorcycle_motorcycle"/>
    <trip id="motorcycle178" depart="879.62" from="-1192260787" to="-320394882" departLane="best" type="motorcycle_motorcycle" departSpeed="max"/>
    <trip id="motorcycle179" depart="884.56" from="151522858" to="214085913#0" departLane="best" type="motorcycle_motorcycle"/>
    <trip id="motorcycle180" depart="889.50" from="124861823#6" to="1238879358#3" departLane="best" type="motorcycle_motorcycle"/>
    <trip id="motorcycle181" depart="894.44" from="-1189813847" to="-788485782#4" departLane="best" type="motorcycle_motorcycle" departSpeed="max"/>
    <trip id="motorcycle182" depart="899.38" from="124861825#0" to="-1238879358#3" departLane="best" type="motorcycle_motorcycle"/>
    <trip id="motorcycle183" depart="904.32" from="-124861824#1" to="-1238879358#0" departLane="best" type="motorcycle_motorcycle"/>
    <trip id="motorcycle184" depart="909.26" from="-214085919#5" to="-665946598" departLane="best" type="motorcycle_motorcycle" departSpeed="max"/>
    <trip id="motorcycle185" depart="914.21" from="-665546552" to="-1265177027#0" departLane="best" type="motorcycle_motorcycle" departSpeed="max"/>
    <trip id="motorcycle186" depart="919.15" from="1126750041#0" to="-124861817#3" departLane="best" type="motorcycle_motorcycle"/>
    <trip id="motorcycle187" depart="924.09" from="1303443733" to="317349751#6" departLane="best" type="motorcycle_motorcycle" departSpeed="max"/>
    <trip id="motorcycle188" depart="929.03" from="-320394882" to="608078456" departLane="best" type="motorcycle_motorcycle"/>
    <trip id="motorcycle189" depart="933.97" from="124858284#9" to="1177177536#1" departLane="best" type="motorcycle_motorcycle"/>
    <trip id="motorcycle190" depart="938.91" from="-220589506" to="124611611#4" departLane="best" type="motorcycle_motorcycle"/>
    <trip id="motorcycle191" depart="943.86" from="124611617#2" to="1091258062" departLane="best" type="motorcycle_motorcycle"/>
    <trip id="motorcycle192" depart="948.80" from="317349751#0" to="665946598" departLane="best" type="motorcycle_motorcycle"/>
    <trip id="motorcycle193" depart="953.74" from="1107662879" to="1187806250" departLane="best" type="motorcycle_motorcycle"/>
    <trip id="motorcycle194" depart="958.68" from="632266777#0" to="1265177026#0" departLane="best" type="motorcycle_motorcycle"/>
    <trip id="motorcycle195" depart="963.62" from="-124861817#5" to="1187806250" departLane="best" type="motorcycle_motorcycle" departSpeed="max"/>
    <trip id="motorcycle196" depart="968.56" from="725363522#0" to="-124861825#0" departLane="best" type="motorcycle_motorcycle"/>
    <trip id="motorcycle197" depart="973.51" from="-1192260787" to="-214670750" departLane="best" type="motorcycle_motorcycle" departSpeed="max"/>
    <trip id="motorcycle198" depart="978.45" from="-124861825#3" to="-124861803#3" departLane="best" type="motorcycle_motorcycle"/>
    <trip id="motorcycle199" depart="983.39" from="-1192260787" to="317349751#4" departLane="best" type="motorcycle_motorcycle" departSpeed="max"/>
    <trip id="motorcycle200" depart="988.33" from="-214085908#1" to="124861825#3" departLane="best" type="motorcycle_motorcycle" departSpeed="max"/>
    <trip id="motorcycle201" depart="993.27" from="-665670054" to="1238879358#5" departLane="best" type="motorcycle_motorcycle" departSpeed="max"/>
    <trip id="motorcycle202" depart="998.21" from="-608078456" to="-1238879358#6" departLane="best" type="motorcycle_motorcycle" departSpeed="max"/>
    <trip id="motorcycle203" depart="1003.16" from="214085919#0" to="1274598669#0" departLane="best" type="motorcycle_motorcycle"/>
    <trip id="motorcycle204" depart="1008.10" from="725363522#1" to="1265177027#1" departLane="best" type="motorcycle_motorcycle"/>
    <trip id="motorcycle205" depart="1013.04" from="-124861823#2" to="124861802" departLane="best" type="motorcycle_motorcycle"/>
    <trip id="motorcycle206" depart="1017.98" from="124861809#1" to="-22842320#1" departLane="best" type="motorcycle_motorcycle"/>
    <trip id="motorcycle207" depart="1022.92" from="-124861817#3" to="-1238879358#5" departLane="best" type="motorcycle_motorcycle"/>
    <trip id="motorcycle208" depart="1027.86" from="317349751#3" to="-788485782#0" departLane="best" type="motorcycle_motorcycle"/>
    <trip id="motorcycle209" depart="1032.81" from="-214085922#0" to="-22842320#1" departLane="best" type="motorcycle_motorcycle"/>