<?xml version="1.0" encoding="UTF-8"?>

<!-- generated on 2025-09-21 13:21:23.985723 by osmWebWizard.py UNKNOWN
<configuration>
    <net-file value="/home/vishwajit/Workspace/SIH2025/FDRL/sumo_files/2025-09-21-13-21-18/osm.net.xml.gz"/>
    <output-trip-file value="/home/vishwajit/Workspace/SIH2025/FDRL/sumo_files/2025-09-21-13-21-18/osm.passenger.trips.xml"/>
    <route-file value="/home/vishwajit/Workspace/SIH2025/FDRL/sumo_files/2025-09-21-13-21-18/osm.passenger.rou.xml"/>
    <prefix value="veh"/>
    <trip-attributes value="departLane=&quot;best&quot;"/>
    <fringe-start-attributes value="departSpeed=&quot;max&quot;"/>
    <vehicle-class value="passenger"/>
    <lanes value="True"/>
    <fringe-factor value="5"/>
    <allow-fringe.min-length value="1000.0"/>
    <edge-permission value="passenger"/>
    <via-edge-types value="highway.motorway,highway.motorway_link,highway.trunk_link,highway.primary_link,highway.secondary_link,highway.tertiary_link"/>
    <seed value="44"/>
    <min-distance value="300.0"/>
    <min-distance.fringe value="10.0"/>
    <remove-loops value="True"/>
    <insertion-density value="30.0"/>
</configuration>
-->

<routes xmlns:xsi="http://www.w3.org/2001/XMLSchema-instance" xsi:noNamespaceSchemaLocation="http://sumo.dlr.de/xsd/routes_file.xsd">
    <vType id="veh_passenger" vClass="passenger"/>
    <trip id="veh0" depart="0.00" from="-124861823#1" to="-1238879358#4" departLane="best" type="veh_passenger"/>
    <trip id="veh1" depart="4.94" from="-1238879358#4" to="-1126750042" departLane="best" type="veh_passenger"/>
    <trip id="veh2" depart="9.88" from="124861814" to="-725293625#0" departLane="best" type="veh_passenger" departSpeed="max"/>
    <trip id="veh3" depart="14.82" from="725363522#0" to="-124861812#1" departLane="best" type="veh_passenger"/>
    <trip id="veh4" depart="19.77" from="124858284#2" to="725363523#3" departLane="best" type="veh_passenger"/>
    <trip id="veh5" depart="24.71" from="-1126750041#1" to="1121687687" departLane="best" type="veh_passenger" departSpeed="max"/>
    <trip id="veh6" depart="29.65" from="124861812#0" to="22842320#1" departLane="best" type="veh_passenger" departSpeed="max"/>
    <trip id="veh7" depart="34.59" from="124861821#2" to="214085908#1" departLane="best" type="veh_passenger"/>
    <trip id="veh8" depart="39.53" from="124861803#0" to="-725363522#0" departLane="best" type="veh_passenger" departSpeed="max"/>
    <trip id="veh9" depart="44.47" from="214085922#5" to="124861821#2" departLane="best" type="veh_passenger"/>
    <trip id="veh10" depart="49.42" from="1303443733" to="124861825#9" departLane="best" type="veh_passenger" departSpeed="max"/>
    <trip id="veh11" depart="54.36" from="-214085922#5" to="317349751#1" departLane="best" type="veh_passenger"/>
    <trip id="veh12" depart="59.30" from="-214085922#3" to="317349751#6" departLane="best" type="veh_passenger"/>
    <trip id="veh13" depart="64.24" from="-124861796#0" to="124861823#3" departLane="best" type="veh_passenger"/>
    <trip id="veh14" depart="69.18" from="214085949" to="124861817#5" departLane="best" type="veh_passenger"/>
    <trip id="veh15" depart="74.12" from="-1303633133" to="124861823#4" departLane="best" type="veh_passenger" departSpeed="max"/>
    <trip id="veh16" depart="79.07" from="124858284#2" to="-1303443733" departLane="best" type="veh_passenger"/>
    <trip id="veh17" depart="84.01" from="214085972" to="317349751#5" departLane="best" type="veh_passenger"/>
    <trip id="veh18" depart="88.95" from="-1265177027#2" to="725363522#1" departLane="best" type="veh_passenger"/>
    <trip id="veh19" depart="93.89" from="-124861825#6" to="-124858284#7" departLane="best" type="veh_passenger"/>
    <trip id="veh20" depart="98.83" from="-725293625#1" to="439133784#1" departLane="best" type="veh_passenger" departSpeed="max"/>
    <trip id="veh21" depart="103.77" from="-214085908#1" to="1126750041#1" departLane="best" type="veh_passenger" departSpeed="max"/>
    <trip id="veh22" depart="108.72" from="124861803#0" to="665546552" departLane="best" type="veh_passenger" departSpeed="max"/>
    <trip id="veh23" depart="113.66" from="-1189813847" to="608078458" departLane="best" type="veh_passenger" departSpeed="max"/>
    <trip id="veh24" depart="118.60" from="1265177027#0" to="-22842320#1" departLane="best" type="veh_passenger"/>
    <trip id="veh25" depart="123.54" from="-788485782#7" to="317349751#3" departLane="best" type="veh_passenger"/>
    <trip id="veh26" depart="128.48" from="-124861824#1" to="1274598669#1" departLane="best" type="veh_passenger"/>
    <trip id="veh27" depart="133.42" from="-1265177026#0" to="1171539007" departLane="best" type="veh_passenger"/>
    <trip id="veh28" depart="138.37" from="1238879358#4" to="1243425888" departLane="best" type="veh_passenger"/>
    <trip id="veh29" depart="143.31" from="-214085919#1" to="-725293625#0" departLane="best" type="veh_passenger"/>
    <trip id="veh30" depart="148.25" from="-665670054" to="632266777#1" departLane="best" type="veh_passenger" departSpeed="max"/>
    <trip id="veh31" depart="153.19" from="-1189813847" to="665546552" departLane="best" type="veh_passenger" departSpeed="max"/>
    <trip id="veh32" depart="158.13" from="151522859#0" to="1107662879" departLane="best" type="veh_passenger"/>
    <trip id="veh33" depart="163.07" from="725363523#0" to="214085913#1" departLane="best" type="veh_passenger"/>
    <trip id="veh34" depart="168.02" from="124861814" to="1177177536#1" departLane="best" type="veh_passenger" departSpeed="max"/>
    <trip id="veh35" depart="172.96" from="124861824#0" to="-1126750041#0" departLane="best" type="veh_passenger"/>
    <trip id="veh36" depart="177.90" from="-124861817#5" to="-124861823#3" departLane="best" type="veh_passenger" departSpeed="max"/>
    <trip id="veh37" depart="182.84" from="-124861803#3" to="-1238879358#0" departLane="best" type="veh_passenger"/>
    <trip id="veh38" depart="187.78" from="-1238879358#6" to="1121689775#1" departLane="best" type="veh_passenger"/>
    <trip id="veh39" depart="192.72" from="124861812#2" to="1265177027#0" departLane="best" type="veh_passenger"/>
    <trip id="veh40" depart="197.67" from="-214085919#4" to="124861812#1" departLane="best" type="veh_passenger"/>
    <trip id="veh41" depart="202.61" from="-214085919#1" to="124861824#0" departLane="best" type="veh_passenger"/>
    <trip id="veh42" depart="207.55" from="1338550400" to="-124861817#2" departLane="best" type="veh_passenger"/>
    <trip id="veh43" depart="212.49" from="317349751#0" to="317349751#4" departLane="best" type="veh_passenger"/>
    <trip id="veh44" depart="217.43" from="-124861825#0" to="-22842320#0" departLane="best" type="veh_passenger"/>
    <trip id="veh45" depart="222.37" from="124861803#3" to="-1265177026#0" departLane="best" type="veh_passenger"/>
    <trip id="veh46" depart="227.32" from="-124861796#0" to="1187806249" departLane="best" type="veh_passenger"/>
    <trip id="veh47" depart="232.26" from="1303443733" to="1265177027#0" departLane="best" type="veh_passenger" departSpeed="max"/>
    <trip id="veh48" depart="237.20" from="22842320#0" to="1192260787" departLane="best" type="veh_passenger" departSpeed="max"/>
    <trip id="veh49" depart="242.14" from="-124861823#1" to="1171540750" departLane="best" type="veh_passenger"/>
    <trip id="veh50" depart="247.08" from="-1126750041#1" to="-22842320#0" departLane="best" type="veh_passenger" departSpeed="max"/>
    <trip id="veh51" depart="252.02" from="-214085908#1" to="-1265177026#0" departLane="best" type="veh_passenger" departSpeed="max"/>
    <trip id="veh52" depart="256.97" from="-214085919#5" to="1303633133" departLane="best" type="veh_passenger" departSpeed="max"/>
    <trip id="veh53" depart="261.91" from="22842320#0" to="-788485782#0" departLane="best" type="veh_passenger" departSpeed="max"/>
    <trip id="veh54" depart="266.85" from="1238879358#0" to="-317349751#5" departLane="best" type="veh_passenger" departSpeed="max"/>
    <trip id="veh55" depart="271.79" from="124861803#0" to="214085919#5" departLane="best" type="veh_passenger" departSpeed="max"/>
    <trip id="veh56" depart="276.73" from="-214085922#3" to="124861825#10" departLane="best" type="veh_passenger"/>
    <trip id="veh57" depart="281.67" from="-124861825#5" to="608078456" departLane="best" type="veh_passenger"/>
    <trip id="veh58" depart="286.62" from="725363523#0" to="-124858284#1" departLane="best" type="veh_passenger"/>
    <trip id="veh59" depart="291.56" from="1171539005" to="317349751#6" departLane="best" type="veh_passenger" departSpeed="max"/>
    <trip id="veh60" depart="296.50" from="-214085919#5" to="-214085949" departLane="best" type="veh_passenger" departSpeed="max"/>
    <trip id="veh61" depart="301.44" from="-1126750041#1" to="-1177177536#0" departLane="best" type="veh_passenger" departSpeed="max"/>
    <trip id="veh62" depart="306.38" from="124861796#0" to="-124861817#1" departLane="best" type="veh_passenger"/>
    <trip id="veh63" depart="311.32" from="1338550400" to="214085922#6" departLane="best" type="veh_passenger"/>
    <trip id="veh64" depart="316.27" from="124858284#4" to="124861796#0" departLane="best" type="veh_passenger"/>
    <trip id="veh65" depart="321.21" from="-439133784#1" to="1265177027#1" departLane="best" type="veh_passenger" departSpeed="max"/>
    <trip id="veh66" depart="326.15" from="1238879358#0" to="124861825#5" departLane="best" type="veh_passenger" departSpeed="max"/>
    <trip id="veh67" depart="331.09" from="665546553" to="725363527#1" departLane="best" type="veh_passenger" departSpeed="max"/>
    <trip id="veh68" depart="336.03" from="-788485782#7" to="-124861817#0" departLane="best" type="veh_passenger"/>
    <trip id="veh69" depart="340.97" from="-1265177027#0" to="-214085956" departLane="best" type="veh_passenger"/>
    <trip id="veh70" depart="345.92" from="124861817#1" to="-1238879358#3" departLane="best" type="veh_passenger"/>
    <trip id="veh71" depart="350.86" from="-124861812#1" to="-1238879358#0" departLane="best" type="veh_passenger"/>
    <trip id="veh72" depart="355.80" from="124861817#1" to="1126750041#1" departLane="best" type="veh_passenger"/>
    <trip id="veh73" depart="360.74" from="-1091258063" to="-220589494#0" departLane="best" type="veh_passenger" departSpeed="max"/>
    <trip id="veh74" depart="365.68" from="-124861809#1" to="124858284#3" departLane="best" type="veh_passenger"/>
    <trip id="veh75" depart="370.62" from="-214085919#5" to="124861821#3" departLane="best" type="veh_passenger" departSpeed="max"/>
    <trip id="veh76" depart="375.57" from="124861825#8" to="1338550400" departLane="best" type="veh_passenger"/>
    <trip id="veh77" depart="380.51" from="-665670054" to="-214670750" departLane="best" type="veh_passenger" departSpeed="max"/>
    <trip id="veh78" depart="385.45" from="-214085919#5" to="-22842320#0" departLane="best" type="veh_passenger" departSpeed="max"/>
    <trip id="veh79" depart="390.39" from="1265177027#3" to="-214670750" departLane="best" type="veh_passenger"/>
    <trip id="veh80" depart="395.33" from="214085972" to="1303633133" departLane="best" type="veh_passenger"/>
    <trip id="veh81" depart="400.27" from="22842320#0" to="1189813847" departLane="best" type="veh_passenger" departSpeed="max"/>
    <trip id="veh82" depart="405.22" from="632266777#0" to="124858284#3" departLane="best" type="veh_passenger"/>
    <trip id="veh83" depart="410.16" from="1155741719" to="1126750041#1" departLane="best" type="veh_passenger"/>
    <trip id="veh84" depart="415.10" from="-1189813847" to="608078458" departLane="best" type="veh_passenger" departSpeed="max"/>
    <trip id="veh85" depart="420.04" from="-214085949" to="-1238879358#1" departLane="best" type="veh_passenger"/>
    <trip id="veh86" depart="424.98" from="-214085956" to="725293625#1" departLane="best" type="veh_passenger"/>
    <trip id="veh87" depart="429.92" from="1126750041#0" to="-1107662879" departLane="best" type="veh_passenger"/>
    <trip id="veh88" depart="434.87" from="-124861825#3" to="-1303443733" departLane="best" type="veh_passenger"/>
    <trip id="veh89" depart="439.81" from="124861802" to="1187806250" departLane="best" type="veh_passenger"/>
    <trip id="veh90" depart="444.75" from="-214085908#1" to="-1238879358#6" departLane="best" type="veh_passenger" departSpeed="max"/>
    <trip id="veh91" depart="449.69" from="-124858284#9" to="1171540750" departLane="best" type="veh_passenger"/>
    <trip id="veh92" depart="454.63" from="-1189813847" to="-439133784#0" departLane="best" type="veh_passenger" departSpeed="max"/>
    <trip id="veh93" depart="459.57" from="-317349751#6" to="214085919#5" departLane="best" type="veh_passenger" departSpeed="max"/>
    <trip id="veh94" depart="464.52" from="-1238879358#3" to="124861821#3" departLane="best" type="veh_passenger"/>
    <trip id="veh95" depart="469.46" from="124861812#2" to="-1303443733" departLane="best" type="veh_passenger"/>
    <trip id="veh96" depart="474.40" from="214085922#6" to="-1238879358#0" departLane="best" type="veh_passenger"/>
    <trip id="veh97" depart="479.34" from="-1303633133" to="1121689775#0" departLane="best" type="veh_passenger" departSpeed="max"/>
    <trip id="veh98" depart="484.28" from="1187808932" to="-214670750" departLane="best" type="veh_passenger" departSpeed="max"/>
    <trip id="veh99" depart="489.22" from="-124858284#7" to="1187806250" departLane="best" type="veh_passenger"/>
    <trip id="veh100" depart="494.17" from="-1238879358#4" to="665670054" departLane="best" type="veh_passenger"/>
    <trip id="veh101" depart="499.11" from="-1189813847" to="1265177027#2" departLane="best" type="veh_passenger" departSpeed="max"/>
    <trip id="veh102" depart="504.05" from="-1177177536#1" to="-124861823#1" departLane="best" type="veh_passenger" departSpeed="max"/>
    <trip id="veh103" depart="508.99" from="-124861825#2" to="-1177177536#0" departLane="best" type="veh_passenger"/>
    <trip id="veh104" depart="513.93" from="-214085922#4" to="-124858284#3" departLane="best" type="veh_passenger"/>
    <trip id="veh105" depart="518.87" from="665546553" to="1238879358#3" departLane="best" type="veh_passenger" departSpeed="max"/>
    <trip id="veh106" depart="523.82" from="-1126750041#1" to="214085919#3" departLane="best" type="veh_passenger" departSpeed="max"/>
    <trip id="veh107" depart="528.76" from="-1126750041#1" to="-124861817#4" departLane="best" type="veh_passenger" departSpeed="max"/>
    <trip id="veh108" depart="533.70" from="665546553" to="725363523#1" departLane="best" type="veh_passenger" departSpeed="max"/>
    <trip id="veh109" depart="538.64" from="214670750" to="1265177026#1" departLane="best" type="veh_passenger" departSpeed="max"/>
    <trip id="veh110" depart="543.58" from="-1303633133" to="214085919#5" departLane="best" type="veh_passenger" departSpeed="max"/>
    <trip id="veh111" depart="548.52" from="-214085913#1" to="-788485782#0" departLane="best" type="veh_passenger"/>
    <trip id="veh112" depart="553.47" from="-124861825#8" to="-1238879358#5" departLane="best" type="veh_passenger"/>
    <trip id="veh113" depart="558.41" from="-1192260787" to="124861825#3" departLane="best" type="veh_passenger" departSpeed="max"/>
    <trip id="veh114" depart="563.35" from="124861812#0" to="124861824#2" departLane="best" type="veh_passenger" departSpeed="max"/>
    <trip id="veh115" depart="568.29" from="-439133784#1" to="124861809#0" departLane="best" type="veh_passenger" departSpeed="max"/>
    <trip id="veh116" depart="573.23" from="1303443733" to="788485782#1" departLane="best" type="veh_passenger" departSpeed="max"/>
    <trip id="veh117" depart="578.17" from="-317349751#1" to="214085919#3" departLane="best" type="veh_passenger"/>
    <trip id="veh118" depart="583.12" from="214085913#1" to="124858284#0" departLane="best" type="veh_passenger"/>
    <trip id="veh119" depart="588.06" from="124861824#3" to="214085919#1" departLane="best" type="veh_passenger"/>
    <trip id="veh120" depart="593.00" from="-124861817#3" to="-124861796#2" departLane="best" type="veh_passenger"/>
    <trip id="veh121" depart="597.94" from="-1243425888" to="1265177027#2" departLane="best" type="veh_passenger" departSpeed="max"/>
    <trip id="veh122" depart="602.88" from="-214085922#5" to="124861823#6" departLane="best" type="veh_passenger"/>
    <trip id="veh123" depart="607.82" from="124858284#1" to="-124861796#0" departLane="best" type="veh_passenger"/>
    <trip id="veh124" depart="612.77" from="-1238879358#1" to="317349751#6" departLane="best" type="veh_passenger"/>
    <trip id="veh125" depart="617.71" from="-124861825#5" to="665670054" departLane="best" type="veh_passenger"/>
    <trip id="veh126" depart="622.65" from="214085922#4" to="1171539007" departLane="best" type="veh_passenger"/>
    <trip id="veh127" depart="627.59" from="-1126750041#1" to="1338550401" departLane="best" type="veh_passenger" departSpeed="max"/>
    <trip id="veh128" depart="632.53" from="124861817#2" to="214085919#4" departLane="best" type="veh_passenger"/>
    <trip id="veh129" depart="637.47" from="1303443733" to="-214670750" departLane="best" type="veh_passenger" departSpeed="max"/>
    <trip id="veh130" depart="642.42" from="-124858284#4" to="124861817#5" departLane="best" type="veh_passenger"/>
    <trip id="veh131" depart="647.36" from="151522859#1" to="214085913#0" departLane="best" type="veh_passenger"/>
    <trip id="veh132" depart="652.30" from="124861824#2" to="1171539007" departLane="best" type="veh_passenger"/>
    <trip id="veh133" depart="657.24" from="124861823#0" to="632266777#1" departLane="best" type="veh_passenger"/>
    <trip id="veh134" depart="662.18" from="1187808932" to="1171539007" departLane="best" type="veh_passenger" departSpeed="max"/>
    <trip id="veh135" depart="667.12" from="320394882" to="124861817#5" departLane="best" type="veh_passenger"/>
    <trip id="veh136" depart="672.07" from="214085919#1" to="1155741719" departLane="best" type="veh_passenger"/>
    <trip id="veh137" depart="677.01" from="725363522#1" to="-124858284#3" departLane="best" type="veh_passenger"/>
    <trip id="veh138" depart="681.95" from="22842320#0" to="1187806250" departLane="best" type="veh_passenger" departSpeed="max"/>
    <trip id="veh139" depart="686.89" from="-124861823#7" to="124861825#9" departLane="best" type="veh_passenger"/>
    <trip id="veh140" depart="691.83" from="124861823#0" to="124861825#3" departLane="best" type="veh_passenger"/>
    <trip id="veh141" depart="696.77" from="-124611620" to="49591929" departLane="best" type="veh_passenger"/>
    <trip id="veh142" depart="701.72" from="-665670054" to="-124861817#1" departLane="best" type="veh_passenger" departSpeed="max"/>
    <trip id="veh143" depart="706.66" from="124861825#2" to="1274598669#0" departLane="best" type="veh_passenger"/>
    <trip id="veh144" depart="711.60" from="725363523#3" to="788485782#2" departLane="best" type="veh_passenger"/>
    <trip id="veh145" depart="716.54" from="-1189813847" to="-124858284#5" departLane="best" type="veh_passenger" departSpeed="max"/>
    <trip id="veh146" depart="721.48" from="214670750" to="-1265177026#1" departLane="best" type="veh_passenger" departSpeed="max"/>
    <trip id="veh147" depart="726.42" from="214085919#3" to="788485782#4" departLane="best" type="veh_passenger"/>
    <trip id="veh148" depart="731.37" from="-665546552" to="-124861809#0" departLane="best" type="veh_passenger" departSpeed="max"/>
    <trip id="veh149" depart="736.31" from="-1303633133" to="151522859#1" departLane="best" type="veh_passenger" departSpeed="max"/>
    <trip id="veh150" depart="741.25" from="-317349751#3" to="608078456" departLane="best" type="veh_passenger"/>
    <trip id="veh151" depart="746.19" from="214085922#2" to="-124861812#0" departLane="best" type="veh_passenger"/>
    <trip id="veh152" depart="751.13" from="725363527#0" to="1187806250" departLane="best" type="veh_passenger"/>
    <trip id="veh153" depart="756.07" from="-214085913#1" to="-124858284#9" departLane="best" type="veh_passenger"/>
    <trip id="veh154" depart="761.02" from="-1177177536#1" to="124861823#1" departLane="best" type="veh_passenger" departSpeed="max"/>
    <trip id="veh155" depart="765.96" from="-725293625#0" to="124861821#0" departLane="best" type="veh_passenger"/>
    <trip id="veh156" depart="770.90" from="124861814" to="788485782#6" departLane="best" type="veh_passenger" departSpeed="max"/>
    <trip id="veh157" depart="775.84" from="-317349751#6" to="214085922#0" departLane="best" type="veh_passenger" departSpeed="max"/>
    <trip id="veh158" depart="780.78" from="-214085919#5" to="725363522#0" departLane="best" type="veh_passenger" departSpeed="max"/>
    <trip id="veh159" depart="785.72" from="-124861823#7" to="-22842320#0" departLane="best" type="veh_passenger"/>
    <trip id="veh160" depart="790.67" from="-124858284#7" to="214085919#5" departLane="best" type="veh_passenger"/>
    <trip id="veh161" depart="795.61" from="-124861825#9" to="124861825#2" departLane="best" type="veh_passenger"/>
    <trip id="veh162" depart="800.55" from="-214085922#2" to="-1107662879" departLane="best" type="veh_passenger"/>
    <trip id="veh163" depart="805.49" from="124861796#1" to="124858284#2" departLane="best" type="veh_passenger"/>
    <trip id="veh164" depart="810.43" from="-1126750041#1" to="1189813847" departLane="best" type="veh_passenger" departSpeed="max"/>
    <trip id="veh165" depart="815.37" from="124858284#5" to="124861817#3" departLane="best" type="veh_passenger"/>
    <trip id="veh166" depart="820.32" from="-214085922#6" to="124861824#2" departLane="best" type="veh_passenger"/>
    <trip id="veh167" depart="825.26" from="-214085919#5" to="608078458" departLane="best" type="veh_passenger" departSpeed="max"/>
    <trip id="veh168" depart="830.20" from="-214085908#0" to="151522858" departLane="best" type="veh_passenger"/>
    <trip id="veh169" depart="835.14" from="1107662879" to="1243425888" departLane="best" type="veh_passenger"/>
    <trip id="veh170" depart="840.08" from="725363527#0" to="-788485782#0" departLane="best" type="veh_passenger"/>
    <trip id="veh171" depart="845.02" from="1107662879" to="-124861824#0" departLane="best" type="veh_passenger"/>
    <trip id="veh172" depart="849.97" from="1274598669#0" to="124861817#5" departLane="best" type="veh_passenger"/>
    <trip id="veh173" depart="854.91" from="-665546552" to="1238879358#6" departLane="best" type="veh_passenger" departSpeed="max"/>
    <trip id="veh174" depart="859.85" from="-317349751#4" to="-1265177026#1" departLane="best" type="veh_passenger"/>
    <trip id="veh175" depart="864.79" from="-1265177027#1" to="-1238879358#4" departLane="best" type="veh_passenger"/>
    <trip id="veh176" depart="869.73" from="-317349751#5" to="124861823#6" departLane="best" type="veh_passenger"/>
    <trip id="veh177" depart="874.67" from="1238879358#0" to="-725363522#0" departLane="best" type="veh_passenger" departSpeed="max"/>
    <trip id="veh178" depart="879.62" from="124861814" to="-124861825#3" departLane="best" type="veh_passenger" departSpeed="max"/>
    <trip id="veh179" depart="884.56" from="124861809#0" to="1126750041#1" departLane="best" type="veh_passenger"/>
    <trip id="veh180" depart="889.50" from="1265177026#1" to="320394882" departLane="best" type="veh_passenger"/>
    <trip id="veh181" depart="894.44" from="-665546552" to="-124861812#0" departLane="best" type="veh_passenger" departSpeed="max"/>
    <trip id="veh182" depart="899.38" from="124861803#0" to="-1126750042" departLane="best" type="veh_passenger" departSpeed="max"/>
    <trip id="veh183" depart="904.32" from="124861818#1" to="1192349845" departLane="best" type="veh_passenger"/>
    <trip id="veh184" depart="909.26" from="665946597#1" to="1177177536#0" departLane="best" type="veh_passenger"/>
    <trip id="veh185" depart="914.21" from="-1189813847" to="124858284#0" departLane="best" type="veh_passenger" departSpeed="max"/>
    <trip id="veh186" depart="919.15" from="124861803#0" to="-124861809#0" departLane="best" type="veh_passenger" departSpeed="max"/>
    <trip id="veh187" depart="924.09" from="-124858284#3" to="-665946598" departLane="best" type="veh_passenger"/>
    <trip id="veh188" depart="929.03" from="-1126750041#1" to="124861817#5" departLane="best" type="veh_passenger" departSpeed="max"/>
    <trip id="veh189" depart="933.97" from="124861812#1" to="-124861824#3" departLane="best" type="veh_passenger"/>
    <trip id="veh190" depart="938.91" from="124861825#2" to="151522858" departLane="best" type="veh_passenger"/>
    <trip id="veh191" depart="943.86" from="1177177536#0" to="1121687688" departLane="best" type="veh_passenger"/>
    <trip id="veh192" depart="948.80" from="665946597#0" to="-22842320#0" departLane="best" type="veh_passenger"/>
    <trip id="veh193" depart="953.74" from="-1177177536#1" to="632266777#1" departLane="best" type="veh_passenger" departSpeed="max"/>
    <trip id="veh194" depart="958.68" from="1265177027#2" to="-22842320#0" departLane="best" type="veh_passenger"/>
    <trip id="veh195" depart="963.62" from="1303443733" to="-124861812#0" departLane="best" type="veh_passenger" departSpeed="max"/>
    <trip id="veh196" depart="968.56" from="124861818#0" to="-317349751#5" departLane="best" type="veh_passenger"/>
    <trip id="veh197" depart="973.51" from="124861823#3" to="725363523#1" departLane="best" type="veh_passenger"/>
    <trip id="veh198" depart="978.45" from="-608078456" to="439133784#0" departLane="best" type="veh_passenger" departSpeed="max"/>
    <trip id="veh199" depart="983.39" from="317349751#1" to="-22842320#0" departLane="best" type="veh_passenger"/>
    <trip id="veh200" depart="988.33" from="-725293625#1" to="-317349751#2" departLane="best" type="veh_passenger" departSpeed="max"/>
    <trip id="veh201" depart="993.27" from="124861824#2" to="1171540750" departLane="best" type="veh_passenger"/>
    <trip id="veh202" depart="998.21" from="124861812#0" to="632266777#1" departLane="best" type="veh_passenger" departSpeed="max"/>
    <trip id="veh203" depart="1003.16" from="124861823#6" to="317349751#6" departLane="best" type="veh_passenger"/>
    <trip id="veh204" depart="1008.10" from="124861812#0" to="124858284#5" departLane="best" type="veh_passenger" departSpeed="max"/>
    <trip id="veh205" depart="1013.04" from="-214085919#0" to="214085908#1" departLane="best" type="veh_passenger"/>
    <trip id="veh206" depart="1017.98" from="-1177177536#1" to="1126750041#1" departLane="best" type="veh_passenger" departSpeed="max"/>
    <trip id="veh207" depart="1022.92" from="725363524#0" to="-124861803#0" departLane="best" type="veh_passenger"/>
    <trip id="veh208" depart="1027.86" from="666847499#0" to="220589497#2" departLane="best" type="veh_passenger" departSpeed="max"/>
    <trip id="veh209" depart="1032.81" from="124861812#0" to="1192349845" departLane="best" type="veh_passenger" departSpeed="max"/>
    <trip id="veh210" depart="1037.75" from="1238879358#0" to="-214085972" departLane="best" type="veh_passenger" departSpeed="max"/>
    <trip id="veh211" depart="1042.69" from="124858284#3" to="608078458" departLane="best" type="veh_passenger"/>
    <trip id="veh212" depart="1047.63" from="788485782#3" to="124861796#0" departLane="best" type="veh_passenger"/>
    <trip id="veh213" depart="1052.57" from="-608078456" to="-124861803#2" departLane="best" type="veh_passenger" departSpeed="max"/>
    <trip id="veh214" depart="1057.51" from="124858284#1" to="214085919#4" departLane="best" type="veh_passenger"/>
    <trip id="veh215" depart="1062.46" from="632266777#1" to="608078458" departLane="best" type="veh_passenger"/>
    <trip id="veh216" depart="1067.40" from="317349751#1" to="725363526#0" departLane="best" type="veh_passenger"/>
    <trip id="veh217" depart="1072.34" from="632266777#1" to="1265177027#1" departLane="best" type="veh_passenger"/>
    <trip id="veh218" depart="1077.28" from="665946597#2" to="1189813847" departLane="best" type="veh_passenger"/>
    <trip id="veh219" depart="1082.22" from="124861825#3" to="214085922#4" departLane="best" type="veh_passenger"/>
    <trip id="veh220" depart="1087.16" from="-317349751#6" to="-124861824#2" departLane="best" type="veh_passenger" departSpeed="max"/>
    <trip id="veh221" depart="1092.11" from="665946598" to="-1265177026#1" departLane="best" type="veh_passenger"/>
    <trip id="veh222" depart="1097.05" from="-124861803#2" to="1243425888" departLane="best" type="veh_passenger"/>
    <trip id="veh223" depart="1101.99" from="124861812#2" to="-788485782#6" departLane="best" type="veh_passenger"/>
    <trip id="veh224" depart="1106.93" from="-124861824#2" to="1265177027#3" departLane="best" type="veh_passenger"/>
    <trip id="veh225" depart="1111.87" from="1303443733" to="317349751#4" departLane="best" type="veh_passenger" departSpeed="max"/>
    <trip id="veh226" depart="1116.81" from="-1189813847" to="124858284#2" departLane="best" type="veh_passenger" departSpeed="max"/>
    <trip id="veh227" depart="1121.76" from="-124861824#3" to="1187806249" departLane="best" type="veh_passenger"/>
    <trip id="veh228" depart="1126.70" from="-124861823#1" to="-22842320#0" departLane="best" type="veh_passenger"/>
    <trip id="veh229" depart="1131.64" from="-214085908#1" to="-214085913#0" departLane="best" type="veh_passenger" departSpeed="max"/>
    <trip id="veh230" depart="1136.58" from="-725293625#1" to="665546552" departLane="best" type="veh_passenger" departSpeed="max"/>
    <trip id="veh231" depart="1141.52" from="-1126750041#0" to="725293625#1" departLane="best" type="veh_passenger"/>
    <trip id="veh232" depart="1146.46" from="-1243425888" to="-788485782#7" departLane="best" type="veh_passenger" departSpeed="max"/>
    <trip id="veh233" depart="1151.41" from="632266777#0" to="439133784#1" departLane="best" type="veh_passenger"/>