<?xml version="1.0" encoding="UTF-8"?>

<!-- generated on 2025-09-21 13:21:22 by Eclipse SUMO netconvert Version 1.24.0
<netconvertConfiguration xmlns:xsi="http://www.w3.org/2001/XMLSchema-instance" xsi:noNamespaceSchemaLocation="http://sumo.dlr.de/xsd/netconvertConfiguration.xsd">

    <input>
        <type-files value="${SUMO_HOME}/data/typemap/osmNetconvert.typ.xml,${SUMO_HOME}/data/typemap/osmNetconvertAerialway.typ.xml"/>
        <osm-files value="osm_bbox.osm.xml.gz"/>
    </input>

    <output>
        <output-file value="osm.net.xml.gz"/>
        <output.street-names value="true"/>
        <output.original-names value="true"/>
        <ptstop-output value="osm_stops.add.xml"/>
        <ptline-output value="osm_ptlines.xml"/>
        <ptline-clean-up value="true"/>
    </output>

    <projection>
        <proj.utm value="true"/>
    </projection>

    <processing>
        <geometry.remove value="true"/>
        <roundabouts.guess value="true"/>
        <lefthand value="true"/>
    </processing>

    <tls_building>
        <tls.discard-simple value="true"/>
        <tls.join value="true"/>
        <tls.guess-signals value="true"/>
        <tls.default-type value="actuated"/>
    </tls_building>

    <ramp_guessing>
        <ramps.guess value="true"/>
    </ramp_guessing>

    <junctions>
        <junctions.join value="true"/>
        <junctions.corner-detail value="5"/>
    </junctions>

    <railway>
        <railway.topology.repair value="true"/>
    </railway>

</netconvertConfiguration>
-->

<net version="1.20" junctionCornerDetail="5" lefthand="true" limitTurnSpeed="5.50" xmlns:xsi="http://www.w3.org/2001/XMLSchema-instance" xsi:noNamespaceSchemaLocation="http://sumo.dlr.de/xsd/net_file.xsd">

    <location netOffset="-284218.69,-2120693.71" convBoundary="0.00,-0.00,1148.26,993.53" origBoundary="72.948012,19.168139,72.958914,19.177080" projParameter="+proj=utm +zone=43 +ellps=WGS84 +datum=WGS84 +units=m +no_defs"/>

    <type id="highway.living_street" priority="2" numLanes="1" speed="2.78" disallow="tram rail_urban rail rail_electric rail_fast ship container cable_car subway aircraft wheelchair scooter drone" oneway="0"/>
    <type id="highway.residential" priority="3" numLanes="1" speed="13.89" disallow="tram rail_urban rail rail_electric rail_fast ship container cable_car subway aircraft wheelchair scooter drone" oneway="0"/>
    <type id="highway.secondary" priority="11" numLanes="1" speed="27.78" disallow="tram rail_urban rail rail_electric rail_fast ship container cable_car subway aircraft wheelchair scooter drone" oneway="0"/>
    <type id="highway.service" priority="1" numLanes="1" speed="5.56" allow="pedestrian delivery bicycle" oneway="0"/>
    <type id="highway.tertiary" priority="10" numLanes="1" speed="22.22" disallow="tram rail_urban rail rail_electric rail_fast ship container cable_car subway aircraft wheelchair scooter drone" oneway="0"/>

    <edge id=":10108026699_0" function="internal">
        <lane id=":10108026699_0_0" index="0" disallow="tram rail_urban rail rail_electric rail_fast ship container cable_car subway aircraft wheelchair scooter drone" speed="13.89" length="6.78" shape="934.34,221.58 933.46,223.39 932.87,224.64 932.20,225.84 931.06,227.49"/>
    </edge>
    <edge id=":10108026699_1" function="internal">
        <lane id=":10108026699_1_0" index="0" allow="pedestrian delivery bicycle" speed="6.70" length="3.72" shape="934.34,221.58 933.26,224.69 933.31,225.11"/>
    </edge>
    <edge id=":10108026699_7" function="internal">
        <lane id=":10108026699_7_0" index="0" allow="pedestrian delivery bicycle" speed="6.70" length="7.82" shape="933.31,225.11 933.57,227.15 935.26,228.96 938.34,230.13"/>
    </edge>
    <edge id=":10108026699_2" function="internal">
        <lane id=":10108026699_2_0" index="0" allow="pedestrian delivery bicycle" speed="4.81" length="5.34" shape="939.03,227.00 937.61,226.46 936.83,225.62 936.69,224.49 937.19,223.05"/>
    </edge>
    <edge id=":10108026699_3" function="internal">
        <lane id=":10108026699_3_0" index="0" allow="pedestrian delivery bicycle" speed="7.44" length="8.30" shape="939.03,227.00 936.08,226.49 933.77,226.40 932.10,226.73 931.06,227.49"/>
    </edge>
    <edge id=":10108026699_4" function="internal">
        <lane id=":10108026699_4_0" index="0" allow="pedestrian delivery bicycle" speed="3.65" length="4.67" shape="939.03,227.00 937.69,227.52 937.12,228.22 937.34,229.08 938.34,230.13"/>
    </edge>
    <edge id=":10108026699_5" function="internal">
        <lane id=":10108026699_5_0" index="0" allow="pedestrian delivery bicycle" speed="5.86" length="4.86" shape="933.64,229.39 934.49,229.13 935.84,229.37 937.27,229.81 938.34,230.13"/>
    </edge>
    <edge id=":10108026699_6" function="internal">
        <lane id=":10108026699_6_0" index="0" disallow="tram rail_urban rail rail_electric rail_fast ship container cable_car subway aircraft wheelchair scooter drone" speed="13.89" length="7.28" shape="933.64,229.39 934.87,227.62 935.60,226.33 936.23,224.99 937.19,223.05"/>
    </edge>
    <edge id=":10108026704_0" function="internal">
        <lane id=":10108026704_0_0" index="0" allow="pedestrian delivery bicycle" speed="3.65" length="4.67" shape="1016.01,268.51 1017.15,269.39 1018.04,269.51 1018.67,268.88 1019.04,267.49"/>
    </edge>
    <edge id=":10134888166_0" function="internal">
        <lane id=":10134888166_0_0" index="0" disallow="tram rail_urban rail rail_electric rail_fast ship container cable_car subway aircraft wheelchair scooter drone" speed="5.94" length="8.91" shape="706.39,895.18 704.24,896.40 702.36,896.46 700.77,895.36 699.47,893.09"/>
    </edge>
    <edge id=":10134888166_1" function="internal">
        <lane id=":10134888166_1_0" index="0" disallow="tram rail_urban rail rail_electric rail_fast ship container cable_car subway aircraft wheelchair scooter drone" speed="9.44" length="15.06" shape="706.39,895.18 703.19,898.25 701.25,901.45 700.58,904.77 701.16,908.22"/>
    </edge>
    <edge id=":10134888166_2" function="internal">
        <lane id=":10134888166_2_0" index="0" disallow="tram rail_urban rail rail_electric rail_fast ship container cable_car subway aircraft wheelchair scooter drone" speed="3.65" length="1.44" shape="706.39,895.18 705.94,896.55"/>
    </edge>
    <edge id=":10134888166_9" function="internal">
        <lane id=":10134888166_9_0" index="0" disallow="tram rail_urban rail rail_electric rail_fast ship container cable_car subway aircraft wheelchair scooter drone" speed="3.65" length="3.23" shape="705.94,896.55 706.12,897.43 706.93,897.81 708.37,897.70"/>
    </edge>
    <edge id=":10134888166_3" function="internal">
        <lane id=":10134888166_3_0" index="0" disallow="tram rail_urban rail rail_electric rail_fast ship container cable_car subway aircraft wheelchair scooter drone" speed="8.17" length="11.08" shape="704.18,907.17 703.81,904.75 704.39,902.37 705.91,900.02 708.37,897.70"/>
    </edge>
    <edge id=":10134888166_4" function="internal">
        <lane id=":10134888166_4_0" index="0" disallow="tram rail_urban rail rail_electric rail_fast ship container cable_car subway aircraft wheelchair scooter drone" speed="8.34" length="14.85" shape="704.18,907.17 699.47,893.09"/>
    </edge>
    <edge id=":10134888166_5" function="internal">
        <lane id=":10134888166_5_0" index="0" disallow="tram rail_urban rail rail_electric rail_fast ship container cable_car subway aircraft wheelchair scooter drone" speed="3.65" length="1.28" shape="704.18,907.17 703.16,906.39"/>
    </edge>
    <edge id=":10134888166_10" function="internal">
        <lane id=":10134888166_10_0" index="0" disallow="tram rail_urban rail rail_electric rail_fast ship container cable_car subway aircraft wheelchair scooter drone" speed="3.65" length="3.39" shape="703.16,906.39 703.04,906.29 702.15,906.18 701.52,906.82 701.16,908.22"/>
    </edge>
    <edge id=":10134888166_6" function="internal">
        <lane id=":10134888166_6_0" index="0" disallow="tram rail_urban rail rail_electric rail_fast ship container cable_car subway aircraft wheelchair scooter drone" speed="8.34" length="14.93" shape="696.41,894.06 701.16,908.22"/>
    </edge>
    <edge id=":10134888166_7" function="internal">
        <lane id=":10134888166_7_0" index="0" disallow="tram rail_urban rail rail_electric rail_fast ship container cable_car subway aircraft wheelchair scooter drone" speed="7.60" length="15.39" shape="696.41,894.06 698.67,897.99 701.41,899.90 704.65,899.81 708.37,897.70"/>
    </edge>
    <edge id=":10134888166_8" function="internal">
        <lane id=":10134888166_8_0" index="0" disallow="tram rail_urban rail rail_electric rail_fast ship container cable_car subway aircraft wheelchair scooter drone" speed="2.78" length="4.69" shape="696.41,894.06 697.54,894.97 698.43,895.10 699.07,894.48 699.47,893.09"/>
    </edge>
    <edge id=":10243935536_0" function="internal">
        <lane id=":10243935536_0_0" index="0" disallow="tram rail_urban rail rail_electric rail_fast ship container cable_car subway aircraft wheelchair scooter drone" speed="3.65" length="4.67" shape="1143.05,308.17 1143.01,306.72 1142.54,305.96 1141.65,305.88 1140.33,306.48"/>
    </edge>
    <edge id=":10250420331_0" function="internal">
        <lane id=":10250420331_0_0" index="0" allow="pedestrian delivery bicycle" speed="3.65" length="4.67" shape="815.15,587.05 815.45,585.64 815.18,584.79 814.34,584.49 812.92,584.75"/>
    </edge>
    <edge id=":10250420343_0" function="internal">
        <lane id=":10250420343_0_0" index="0" allow="pedestrian delivery bicycle" speed="6.13" length="7.77" shape="763.21,632.89 762.50,634.12 762.60,635.66 763.52,637.50 765.25,639.64"/>
    </edge>
    <edge id=":10250420343_1" function="internal">
        <lane id=":10250420343_1_0" index="0" allow="pedestrian delivery bicycle" speed="3.65" length="4.67" shape="763.21,632.89 762.90,634.30 763.17,635.15 764.01,635.45 765.43,635.19"/>
    </edge>
    <edge id=":10250420343_2" function="internal">
        <lane id=":10250420343_2_0" index="0" disallow="tram rail_urban rail rail_electric rail_fast ship container cable_car subway aircraft wheelchair scooter drone" speed="27.78" length="9.39" shape="758.82,632.79 765.25,639.64"/>
    </edge>
    <edge id=":10250420343_3" function="internal">
        <lane id=":10250420343_3_0" index="0" allow="pedestrian delivery bicycle" speed="6.07" length="7.79" shape="758.82,632.79 760.86,634.66 762.64,635.69 764.17,635.86 765.43,635.19"/>
    </edge>
    <edge id=":10254962632_0" function="internal">
        <lane id=":10254962632_0_0" index="0" allow="pedestrian delivery bicycle" speed="5.49" length="5.41" shape="1075.13,837.04 1073.88,838.03 1072.65,838.49 1071.46,838.43 1070.29,837.83"/>
    </edge>
    <edge id=":10254962632_1" function="internal">
        <lane id=":10254962632_1_0" index="0" allow="pedestrian delivery bicycle" speed="5.56" length="10.52" shape="1075.13,837.04 1073.37,839.36 1072.83,841.64 1073.51,843.89 1075.41,846.10"/>
    </edge>
    <edge id=":10254962632_2" function="internal">
        <lane id=":10254962632_2_0" index="0" allow="pedestrian delivery bicycle" speed="3.65" length="4.67" shape="1075.13,837.04 1074.84,838.45 1075.12,839.30 1075.97,839.59 1077.38,839.31"/>
    </edge>
    <edge id=":10254962632_3" function="internal">
        <lane id=":10254962632_3_0" index="0" allow="pedestrian delivery bicycle" speed="4.97" length="5.09" shape="1077.52,843.69 1076.60,842.62 1076.27,841.54 1076.53,840.43 1077.38,839.31"/>
    </edge>
    <edge id=":10254962632_4" function="internal">
        <lane id=":10254962632_4_0" index="0" allow="pedestrian delivery bicycle" speed="5.56" length="9.31" shape="1077.52,843.69 1070.29,837.83"/>
    </edge>
    <edge id=":10254962632_5" function="internal">
        <lane id=":10254962632_5_0" index="0" allow="pedestrian delivery bicycle" speed="3.65" length="4.67" shape="1077.52,843.69 1076.09,843.51 1075.26,843.84 1075.03,844.71 1075.41,846.10"/>
    </edge>
    <edge id=":10254962632_6" function="internal">
        <lane id=":10254962632_6_0" index="0" allow="pedestrian delivery bicycle" speed="5.56" length="9.05" shape="1068.38,840.41 1075.41,846.10"/>
    </edge>
    <edge id=":10254962632_7" function="internal">
        <lane id=":10254962632_7_0" index="0" allow="pedestrian delivery bicycle" speed="5.56" length="10.02" shape="1068.38,840.41 1070.64,841.59 1072.89,841.80 1075.14,841.04 1077.38,839.31"/>
    </edge>
    <edge id=":10254962632_8" function="internal">
        <lane id=":10254962632_8_0" index="0" allow="pedestrian delivery bicycle" speed="3.65" length="4.67" shape="1068.38,840.41 1069.82,840.48 1070.62,840.07 1070.78,839.19 1070.29,837.83"/>
    </edge>
    <edge id=":10254962633_0" function="internal">
        <lane id=":10254962633_0_0" index="0" allow="pedestrian delivery bicycle" speed="3.65" length="4.67" shape="1106.19,873.02 1107.62,873.21 1108.44,872.87 1108.67,872.00 1108.29,870.61"/>
    </edge>
    <edge id=":10254962634_0" function="internal">
        <lane id=":10254962634_0_0" index="0" allow="pedestrian delivery bicycle" speed="3.65" length="4.67" shape="901.94,621.59 903.35,621.91 904.20,621.64 904.51,620.80 904.25,619.38"/>
    </edge>
    <edge id=":10254962635_0" function="internal">
        <lane id=":10254962635_0_0" index="0" disallow="tram rail_urban rail rail_electric rail_fast ship container cable_car subway aircraft wheelchair scooter drone" speed="27.78" length="9.39" shape="880.68,590.23 873.88,596.71"/>
    </edge>
    <edge id=":10254962635_1" function="internal">
        <lane id=":10254962635_1_0" index="0" allow="pedestrian delivery bicycle" speed="6.08" length="7.75" shape="880.68,590.23 878.83,592.28 877.81,594.06 877.62,595.58 878.28,596.83"/>
    </edge>
    <edge id=":10254962635_2" function="internal">
        <lane id=":10254962635_2_0" index="0" allow="pedestrian delivery bicycle" speed="6.09" length="7.75" shape="880.59,594.62 879.37,593.91 877.84,594.03 876.02,594.96 873.88,596.71"/>
    </edge>
    <edge id=":10254962635_3" function="internal">
        <lane id=":10254962635_3_0" index="0" allow="pedestrian delivery bicycle" speed="3.65" length="4.67" shape="880.59,594.62 879.18,594.30 878.33,594.57 878.02,595.41 878.28,596.83"/>
    </edge>
    <edge id=":10259396180_0" function="internal">
        <lane id=":10259396180_0_0" index="0" disallow="tram rail_urban rail rail_electric rail_fast ship container cable_car subway aircraft wheelchair scooter drone" speed="3.65" length="4.67" shape="714.31,951.10 715.23,952.20 716.07,952.52 716.82,952.03 717.49,950.75"/>
    </edge>
    <edge id=":10262941450_0" function="internal">
        <lane id=":10262941450_0_0" index="0" allow="bus bicycle" speed="5.52" length="7.30" shape="929.32,544.32 928.03,545.02 926.68,544.77 925.27,543.57 923.79,541.42"/>
    </edge>
    <edge id=":10262941450_1" function="internal">
        <lane id=":10262941450_1_0" index="0" disallow="tram rail_urban rail rail_electric rail_fast ship container cable_car subway aircraft wheelchair scooter drone" speed="27.78" length="13.48" shape="929.32,544.32 919.46,553.51"/>
    </edge>
    <edge id=":10262941450_2" function="internal">
        <lane id=":10262941450_2_0" index="0" allow="bus bicycle" speed="8.13" length="12.21" shape="920.65,542.40 921.99,545.54 922.24,548.44 921.40,551.10 919.46,553.51"/>
    </edge>
    <edge id=":10262941450_3" function="internal">
        <lane id=":10262941450_3_0" index="0" allow="bus bicycle" speed="3.68" length="4.79" shape="920.65,542.40 921.80,543.33 922.71,543.47 923.37,542.84 923.79,541.42"/>
    </edge>
    <edge id=":10262941454_0" function="internal">
        <lane id=":10262941454_0_0" index="0" allow="bus bicycle" speed="3.68" length="4.79" shape="883.93,499.12 888.42,497.47"/>
    </edge>
    <edge id=":10262941454_1" function="internal">
        <lane id=":10262941454_1_0" index="0" allow="bus bicycle" speed="4.08" length="6.42" shape="883.93,499.12 882.78,497.51 881.66,497.00 880.58,497.58 879.54,499.26"/>
    </edge>
    <edge id=":10262941454_2" function="internal">
        <lane id=":10262941454_2_0" index="0" allow="bus bicycle" speed="13.89" length="14.00" shape="876.77,485.89 878.19,488.98 878.15,492.58 878.11,496.18 879.54,499.26"/>
    </edge>
    <edge id=":10262941454_3" function="internal">
        <lane id=":10262941454_3_0" index="0" disallow="tram rail_urban rail rail_electric rail_fast ship container cable_car subway aircraft wheelchair scooter drone" speed="22.22" length="16.43" shape="876.77,485.89 888.42,497.47"/>
    </edge>
    <edge id=":10280126566_0" function="internal">
        <lane id=":10280126566_0_0" index="0" disallow="tram rail_urban rail rail_electric rail_fast ship container cable_car subway aircraft wheelchair scooter drone" speed="22.22" length="9.36" shape="750.19,573.44 756.82,566.84"/>
    </edge>
    <edge id=":10280126566_1" function="internal">
        <lane id=":10280126566_1_0" index="0" allow="pedestrian delivery bicycle" speed="6.17" length="7.76" shape="750.19,573.44 751.96,571.35 752.93,569.54 753.09,568.00 752.44,566.74"/>
    </edge>
    <edge id=":10280126566_2" function="internal">
        <lane id=":10280126566_2_0" index="0" allow="pedestrian delivery bicycle" speed="6.07" length="7.79" shape="750.11,568.94 751.34,569.67 752.87,569.57 754.70,568.62 756.82,566.84"/>
    </edge>
    <edge id=":10280126566_3" function="internal">
        <lane id=":10280126566_3_0" index="0" allow="pedestrian delivery bicycle" speed="3.65" length="4.67" shape="750.11,568.94 751.52,569.26 752.37,569.01 752.68,568.17 752.44,566.74"/>
    </edge>
    <edge id=":10280126575_0" function="internal">
        <lane id=":10280126575_0_0" index="0" allow="pedestrian delivery bicycle" speed="3.65" length="4.67" shape="750.44,529.40 750.70,527.98 750.40,527.14 749.54,526.87 748.14,527.18"/>
    </edge>
    <edge id=":10302841275_0" function="internal">
        <lane id=":10302841275_0_0" index="0" allow="pedestrian delivery bicycle" speed="5.09" length="5.06" shape="61.52,667.40 60.17,667.19 59.21,666.58 58.63,665.58 58.43,664.20"/>
    </edge>
    <edge id=":10302841275_1" function="internal">
        <lane id=":10302841275_1_0" index="0" allow="pedestrian delivery bicycle" speed="5.56" length="9.40" shape="61.52,667.40 52.12,667.28"/>
    </edge>
    <edge id=":10302841275_2" function="internal">
        <lane id=":10302841275_2_0" index="0" allow="pedestrian delivery bicycle" speed="3.65" length="4.67" shape="61.52,667.40 60.31,668.19 59.89,668.98 60.28,669.79 61.47,670.60"/>
    </edge>
    <edge id=":10302841275_3" function="internal">
        <lane id=":10302841275_3_0" index="0" allow="pedestrian delivery bicycle" speed="5.56" length="9.40" shape="52.07,670.48 61.47,670.60"/>
    </edge>
    <edge id=":10302841275_4" function="internal">
        <lane id=":10302841275_4_0" index="0" allow="pedestrian delivery bicycle" speed="5.56" length="10.23" shape="52.07,670.48 54.86,670.12 56.85,668.95 58.04,666.98 58.43,664.20"/>
    </edge>
    <edge id=":10302841275_5" function="internal">
        <lane id=":10302841275_5_0" index="0" allow="pedestrian delivery bicycle" speed="3.65" length="4.67" shape="52.07,670.48 53.28,669.70 53.69,668.90 53.31,668.10 52.12,667.28"/>
    </edge>
    <edge id=":10302841275_6" function="internal">
        <lane id=":10302841275_6_0" index="0" allow="pedestrian delivery bicycle" speed="5.02" length="5.02" shape="55.23,664.20 55.04,665.56 54.46,666.53 53.48,667.10 52.12,667.28"/>
    </edge>
    <edge id=":10302841275_7" function="internal">
        <lane id=":10302841275_7_0" index="0" allow="pedestrian delivery bicycle" speed="5.56" length="10.16" shape="55.23,664.20 55.63,666.97 56.80,668.96 58.75,670.17 61.47,670.60"/>
    </edge>
    <edge id=":10302841275_8" function="internal">
        <lane id=":10302841275_8_0" index="0" allow="pedestrian delivery bicycle" speed="3.65" length="4.67" shape="55.23,664.20 56.04,665.40 56.84,665.80 57.64,665.40 58.43,664.20"/>
    </edge>
    <edge id=":10303031451_0" function="internal">
        <lane id=":10303031451_0_0" index="0" allow="pedestrian delivery bicycle" speed="3.65" length="4.67" shape="110.30,203.15 111.25,202.07 111.43,201.19 110.83,200.52 109.46,200.06"/>
    </edge>
    <edge id=":10303031454_0" function="internal">
        <lane id=":10303031454_0_0" index="0" allow="pedestrian delivery bicycle" speed="4.17" length="6.74" shape="91.18,209.02 90.39,210.06 89.18,210.96 87.56,211.71 85.51,212.32"/>
    </edge>
    <edge id=":10303031454_1" function="internal">
        <lane id=":10303031454_1_0" index="0" allow="pedestrian delivery bicycle" speed="4.17" length="9.54" shape="91.18,209.02 90.54,210.96 90.54,213.11 91.15,215.49 92.40,218.09"/>
    </edge>
    <edge id=":10303031454_2" function="internal">
        <lane id=":10303031454_2_0" index="0" allow="pedestrian delivery bicycle" speed="3.65" length="4.67" shape="91.18,209.02 91.34,210.45 91.86,211.17 92.76,211.18 94.02,210.49"/>
    </edge>
    <edge id=":10303031454_3" function="internal">
        <lane id=":10303031454_3_0" index="0" allow="pedestrian delivery bicycle" speed="4.17" length="6.27" shape="95.13,216.42 94.24,214.62 93.75,213.03 93.68,211.65 94.02,210.49"/>
    </edge>
    <edge id=":10303031454_4" function="internal">
        <lane id=":10303031454_4_0" index="0" disallow="tram rail_urban rail rail_electric rail_fast ship container cable_car subway aircraft wheelchair scooter drone" speed="2.78" length="11.31" shape="95.13,216.42 93.32,214.06 91.11,212.59 88.51,212.01 85.51,212.32"/>
    </edge>
    <edge id=":10303031454_5" function="internal">
        <lane id=":10303031454_5_0" index="0" disallow="tram rail_urban rail rail_electric rail_fast ship container cable_car subway aircraft wheelchair scooter drone" speed="2.78" length="7.25" shape="86.25,215.44 88.16,215.24 89.82,215.62 91.23,216.57 92.40,218.09"/>
    </edge>
    <edge id=":10303031454_6" function="internal">
        <lane id=":10303031454_6_0" index="0" allow="pedestrian delivery bicycle" speed="4.17" length="9.49" shape="86.25,215.44 88.96,214.60 91.16,213.49 92.85,212.12 94.02,210.49"/>
    </edge>
    <edge id=":10303031455_0" function="internal">
        <lane id=":10303031455_0_0" index="0" disallow="tram rail_urban rail rail_electric rail_fast ship container cable_car subway aircraft wheelchair scooter drone" speed="2.78" length="4.67" shape="39.68,176.67 38.49,175.86 37.60,175.79 37.01,176.46 36.72,177.87"/>
    </edge>
    <edge id=":10927917193_0" function="internal">
        <lane id=":10927917193_0_0" index="0" allow="pedestrian delivery bicycle" speed="5.02" length="5.02" shape="961.88,657.91 961.03,656.82 960.75,655.72 961.02,654.62 961.85,653.52"/>
    </edge>
    <edge id=":10927917193_1" function="internal">
        <lane id=":10927917193_1_0" index="0" allow="pedestrian delivery bicycle" speed="3.65" length="4.67" shape="961.88,657.91 960.46,657.64 959.61,657.94 959.34,658.79 959.65,660.20"/>
    </edge>
    <edge id=":10927917193_2" function="internal">
        <lane id=":10927917193_2_0" index="0" allow="pedestrian delivery bicycle" speed="5.10" length="5.08" shape="955.18,660.14 956.28,659.33 957.39,659.08 958.51,659.37 959.65,660.20"/>
    </edge>
    <edge id=":10927917193_3" function="internal">
        <lane id=":10927917193_3_0" index="0" disallow="tram rail_urban rail rail_electric rail_fast ship container cable_car subway aircraft wheelchair scooter drone" speed="22.22" length="9.40" shape="955.18,660.14 961.85,653.52"/>
    </edge>
    <edge id=":10927917194_0" function="internal">
        <lane id=":10927917194_0_0" index="0" allow="pedestrian delivery bicycle" speed="3.65" length="4.67" shape="994.22,693.77 995.64,694.04 996.48,693.74 996.76,692.89 996.45,691.48"/>
    </edge>
    <edge id=":10936306463_0" function="internal">
        <lane id=":10936306463_0_0" index="0" disallow="tram rail_urban rail rail_electric rail_fast ship container cable_car subway aircraft wheelchair scooter drone" speed="3.65" length="4.67" shape="0.04,748.94 -1.18,749.71 -1.60,750.50 -1.22,751.31 -0.04,752.14"/>
    </edge>
    <edge id=":10936328671_0" function="internal">
        <lane id=":10936328671_0_0" index="0" disallow="tram rail_urban rail rail_electric rail_fast ship container cable_car subway aircraft wheelchair scooter drone" speed="13.89" length="14.41" shape="80.46,751.16 66.05,750.73"/>
    </edge>
    <edge id=":10936328671_1" function="internal">
        <lane id=":10936328671_1_0" index="0" disallow="tram rail_urban rail rail_electric rail_fast ship container cable_car subway aircraft wheelchair scooter drone" speed="7.98" length="4.09" shape="80.46,751.16 76.57,751.59 76.42,751.68"/>
    </edge>
    <edge id=":10936328671_2" function="internal">
        <lane id=":10936328671_2_0" index="0" disallow="tram rail_urban rail rail_electric rail_fast ship container cable_car subway aircraft wheelchair scooter drone" speed="3.65" length="1.44" shape="80.46,751.16 79.23,751.92"/>
    </edge>
    <edge id=":10936328671_9" function="internal">
        <lane id=":10936328671_9_0" index="0" disallow="tram rail_urban rail rail_electric rail_fast ship container cable_car subway aircraft wheelchair scooter drone" speed="7.98" length="10.15" shape="76.42,751.68 73.77,753.17 72.06,755.88 71.44,759.74"/>
    </edge>
    <edge id=":10936328671_10" function="internal">
        <lane id=":10936328671_10_0" index="0" disallow="tram rail_urban rail rail_electric rail_fast ship container cable_car subway aircraft wheelchair scooter drone" speed="3.65" length="3.23" shape="79.23,751.92 78.81,752.71 79.18,753.52 80.36,754.36"/>
    </edge>
    <edge id=":10936328671_3" function="internal">
        <lane id=":10936328671_3_0" index="0" disallow="tram rail_urban rail rail_electric rail_fast ship container cable_car subway aircraft wheelchair scooter drone" speed="6.48" length="9.03" shape="74.64,759.80 75.03,757.35 76.12,755.63 77.89,754.63 80.36,754.36"/>
    </edge>
    <edge id=":10936328671_4" function="internal">
        <lane id=":10936328671_4_0" index="0" disallow="tram rail_urban rail rail_electric rail_fast ship container cable_car subway aircraft wheelchair scooter drone" speed="8.03" length="14.21" shape="74.64,759.80 74.16,755.93 72.57,753.12 69.87,751.39 66.05,750.73"/>
    </edge>
    <edge id=":10936328671_5" function="internal">
        <lane id=":10936328671_5_0" index="0" disallow="tram rail_urban rail rail_electric rail_fast ship container cable_car subway aircraft wheelchair scooter drone" speed="3.65" length="4.67" shape="74.64,759.80 73.86,758.59 73.07,758.17 72.26,758.56 71.44,759.74"/>
    </edge>
    <edge id=":10936328671_6" function="internal">
        <lane id=":10936328671_6_0" index="0" disallow="tram rail_urban rail rail_electric rail_fast ship container cable_car subway aircraft wheelchair scooter drone" speed="6.55" length="9.08" shape="65.96,753.93 68.40,754.35 70.12,755.46 71.13,757.26 71.44,759.74"/>
    </edge>
    <edge id=":10936328671_7" function="internal">
        <lane id=":10936328671_7_0" index="0" disallow="tram rail_urban rail rail_electric rail_fast ship container cable_car subway aircraft wheelchair scooter drone" speed="13.89" length="14.40" shape="65.96,753.93 80.36,754.36"/>
    </edge>
    <edge id=":10936328671_8" function="internal">
        <lane id=":10936328671_8_0" index="0" disallow="tram rail_urban rail rail_electric rail_fast ship container cable_car subway aircraft wheelchair scooter drone" speed="3.65" length="1.44" shape="65.96,753.93 67.18,753.17"/>
    </edge>
    <edge id=":10936328671_11" function="internal">
        <lane id=":10936328671_11_0" index="0" disallow="tram rail_urban rail rail_electric rail_fast ship container cable_car subway aircraft wheelchair scooter drone" speed="3.65" length="3.23" shape="67.18,753.17 67.60,752.38 67.23,751.57 66.05,750.73"/>
    </edge>
    <edge id=":10936328672_0" function="internal">
        <lane id=":10936328672_0_0" index="0" disallow="tram rail_urban rail rail_electric rail_fast ship container cable_car subway aircraft wheelchair scooter drone" speed="3.65" length="4.67" shape="70.54,807.82 71.32,809.04 72.11,809.45 72.92,809.07 73.74,807.88"/>
    </edge>
    <edge id=":10936334959_0" function="internal">
        <lane id=":10936334959_0_0" index="0" disallow="tram rail_urban rail rail_electric rail_fast ship container cable_car subway aircraft wheelchair scooter drone" speed="22.22" length="9.52" shape="32.62,436.74 25.98,429.90"/>
    </edge>
    <edge id=":10936334959_1" function="internal">
        <lane id=":10936334959_1_0" index="0" allow="pedestrian delivery bicycle" speed="7.45" length="2.93" shape="32.62,436.74 30.61,435.26 30.19,435.16"/>
    </edge>
    <edge id=":10936334959_7" function="internal">
        <lane id=":10936334959_7_0" index="0" allow="pedestrian delivery bicycle" speed="7.45" length="7.39" shape="30.19,435.16 28.37,434.72 25.90,435.13 23.20,436.48"/>
    </edge>
    <edge id=":10936334959_2" function="internal">
        <lane id=":10936334959_2_0" index="0" allow="pedestrian delivery bicycle" speed="5.78" length="5.88" shape="24.94,439.17 26.56,438.32 28.00,438.01 29.25,438.22 30.32,438.97"/>
    </edge>
    <edge id=":10936334959_3" function="internal">
        <lane id=":10936334959_3_0" index="0" allow="pedestrian delivery bicycle" speed="6.73" length="11.19" shape="24.94,439.17 27.31,437.09 28.28,434.85 27.84,432.46 25.98,429.90"/>
    </edge>
    <edge id=":10936334959_4" function="internal">
        <lane id=":10936334959_4_0" index="0" allow="pedestrian delivery bicycle" speed="3.65" length="4.67" shape="24.94,439.17 25.51,437.84 25.41,436.96 24.64,436.50 23.20,436.48"/>
    </edge>
    <edge id=":10936334959_5" function="internal">