<?xml version="1.0" encoding="UTF-8"?>

<!-- generated on 2025-11-02 03:38:57.543662 by osmWebWizard.py UNKNOWN
<configuration>
    <net-file value="/home/vishwajit/2025-11-02-03-38-48/osm.net.xml.gz"/>
    <output-trip-file value="/home/vishwajit/2025-11-02-03-38-48/osm.motorcycle.trips.xml"/>
    <route-file value="/home/vishwajit/2025-11-02-03-38-48/osm.motorcycle.rou.xml"/>
    <prefix value="motorcycle"/>
    <trip-attributes value="departLane=&quot;best&quot;"/>
    <fringe-start-attributes value="departSpeed=&quot;max&quot;"/>
    <vehicle-class value="motorcycle"/>
    <fringe-factor value="10"/>
    <edge-permission value="motorcycle"/>
    <via-edge-types value="highway.motorway,highway.motorway_link,highway.trunk_link,highway.primary_link,highway.secondary_link,highway.tertiary_link"/>
    <seed value="43"/>
    <max-distance value="1200.0"/>
    <remove-loops value="True"/>
    <insertion-density value="20.0"/>
</configuration>
-->

<routes xmlns:xsi="http://www.w3.org/2001/XMLSchema-instance" xsi:noNamespaceSchemaLocation="http://sumo.dlr.de/xsd/routes_file.xsd">
    <vType id="motorcycle_motorcycle" vClass="motorcycle"/>
    <trip id="motorcycle0" depart="0.00" from="-214097335#4" to="49591851#2" departLane="best" type="motorcycle_motorcycle" departSpeed="max"/>
    <trip id="motorcycle1" depart="2.53" from="-391365884" to="-214085969" departLane="best" type="motorcycle_motorcycle" departSpeed="max"/>
    <trip id="motorcycle2" depart="5.07" from="1303445746" to="124861813#2" departLane="best" type="motorcycle_motorcycle"/>
    <trip id="motorcycle3" depart="7.60" from="-665946596#0" to="124861794#2" departLane="best" type="motorcycle_motorcycle"/>
    <trip id="motorcycle4" depart="10.13" from="-1133787479" to="725363523#2" departLane="best" type="motorcycle_motorcycle" departSpeed="max"/>
    <trip id="motorcycle5" depart="12.67" from="214670744#0" to="-665546553" departLane="best" type="motorcycle_motorcycle"/>
    <trip id="motorcycle6" depart="15.20" from="438964732" to="1235814456#1" departLane="best" type="motorcycle_motorcycle" departSpeed="max"/>
    <trip id="motorcycle7" depart="17.73" from="124861796#3" to="-124861802#6" departLane="best" type="motorcycle_motorcycle"/>
    <trip id="motorcycle8" depart="20.27" from="439133784#0" to="-991860327" departLane="best" type="motorcycle_motorcycle"/>
    <trip id="motorcycle9" depart="22.80" from="214085901#0" to="-1190592107" departLane="best" type="motorcycle_motorcycle"/>
    <trip id="motorcycle10" depart="25.33" from="-1187806250" to="1190750307" departLane="best" type="motorcycle_motorcycle" departSpeed="max"/>
    <trip id="motorcycle11" depart="27.87" from="151522859#1" to="788349071" departLane="best" type="motorcycle_motorcycle"/>
    <trip id="motorcycle12" depart="30.40" from="124861822#2" to="-1189817147#2" departLane="best" type="motorcycle_motorcycle"/>
    <trip id="motorcycle13" depart="32.93" from="725293625#8" to="124861814#1" departLane="best" type="motorcycle_motorcycle"/>
    <trip id="motorcycle14" depart="35.47" from="-1176132762#0" to="-124861825#2" departLane="best" type="motorcycle_motorcycle"/>
    <trip id="motorcycle15" depart="38.00" from="-1192260787" to="317349751#2" departLane="best" type="motorcycle_motorcycle" departSpeed="max"/>
    <trip id="motorcycle16" depart="40.53" from="-1186853110" to="124611604#2" departLane="best" type="motorcycle_motorcycle" departSpeed="max"/>
    <trip id="motorcycle17" depart="43.07" from="-214085954#1" to="214085922#6" departLane="best" type="motorcycle_motorcycle"/>
    <trip id="motorcycle18" depart="45.60" from="-665670054" to="725293625#5" departLane="best" type="motorcycle_motorcycle" departSpeed="max"/>
    <trip id="motorcycle19" depart="48.13" from="124861821#1" to="-124861802#3" departLane="best" type="motorcycle_motorcycle"/>
    <trip id="motorcycle20" depart="50.67" from="-124858284#0" to="725293625#2" departLane="best" type="motorcycle_motorcycle"/>
    <trip id="motorcycle21" depart="53.20" from="725293625#4" to="1303445747" departLane="best" type="motorcycle_motorcycle"/>
    <trip id="motorcycle22" depart="55.74" from="666847768#0" to="-220589494#0" departLane="best" type="motorcycle_motorcycle" departSpeed="max"/>
    <trip id="motorcycle23" depart="58.27" from="-214670699" to="788863317#0" departLane="best" type="motorcycle_motorcycle" departSpeed="max"/>
    <trip id="motorcycle24" depart="60.80" from="-788391001" to="124861818#0" departLane="best" type="motorcycle_motorcycle" departSpeed="max"/>
    <trip id="motorcycle25" depart="63.34" from="1120031777#4" to="-438964731" departLane="best" type="motorcycle_motorcycle"/>
    <trip id="motorcycle26" depart="65.87" from="-1189817148" to="214670699" departLane="best" type="motorcycle_motorcycle"/>
    <trip id="motorcycle27" depart="68.40" from="-1192260787" to="-1120036792#2" departLane="best" type="motorcycle_motorcycle" departSpeed="max"/>
    <trip id="motorcycle28" depart="70.94" from="124861813#3" to="-124861824#2" departLane="best" type="motorcycle_motorcycle"/>
    <trip id="motorcycle29" depart="73.47" from="-317349751#4" to="-1161004434#1" departLane="best" type="motorcycle_motorcycle"/>
    <trip id="motorcycle30" depart="76.00" from="-124861825#7" to="-1265177027#1" departLane="best" type="motorcycle_motorcycle"/>
    <trip id="motorcycle31" depart="78.54" from="-1303442127#0" to="214085900#1" departLane="best" type="motorcycle_motorcycle"/>
    <trip id="motorcycle32" depart="81.07" from="-1303442127#1" to="1303438828#1" departLane="best" type="motorcycle_motorcycle" departSpeed="max"/>
    <trip id="motorcycle33" depart="83.60" from="1265177027#1" to="1189813847" departLane="best" type="motorcycle_motorcycle"/>
    <trip id="motorcycle34" depart="86.14" from="124858280#0" to="-665670045#0" departLane="best" type="motorcycle_motorcycle"/>
    <trip id="motorcycle35" depart="88.67" from="-608078458" to="1177177536#1" departLane="best" type="motorcycle_motorcycle" departSpeed="max"/>
    <trip id="motorcycle36" depart="91.20" from="1175243333" to="214085982#1" departLane="best" type="motorcycle_motorcycle" departSpeed="max"/>
    <trip id="motorcycle37" depart="93.74" from="-725293625#7" to="124861794#2" departLane="best" type="motorcycle_motorcycle"/>
    <trip id="motorcycle38" depart="96.27" from="124861813#3" to="665670054" departLane="best" type="motorcycle_motorcycle"/>
    <trip id="motorcycle39" depart="98.80" from="788485782#2" to="124861817#5" departLane="best" type="motorcycle_motorcycle"/>
    <trip id="motorcycle40" depart="101.34" from="1265177027#1" to="1192349845" departLane="best" type="motorcycle_motorcycle"/>
    <trip id="motorcycle41" depart="103.87" from="-124861824#2" to="1190592107" departLane="best" type="motorcycle_motorcycle"/>
    <trip id="motorcycle42" depart="106.40" from="-214085982#3" to="1177177536#1" departLane="best" type="motorcycle_motorcycle"/>
    <trip id="motorcycle43" depart="108.94" from="-1265177027#3" to="-1303442128#0" departLane="best" type="motorcycle_motorcycle"/>
    <trip id="motorcycle44" depart="111.47" from="214085969" to="1107662879" departLane="best" type="motorcycle_motorcycle" departSpeed="max"/>
    <trip id="motorcycle45" depart="114.00" from="124861813#1" to="1177178389#0" departLane="best" type="motorcycle_motorcycle"/>
    <trip id="motorcycle46" depart="116.54" from="-1355302937" to="22842320#3" departLane="best" type="motorcycle_motorcycle" departSpeed="max"/>
    <trip id="motorcycle47" depart="119.07" from="-124861813#7" to="1187806250" departLane="best" type="motorcycle_motorcycle"/>
    <trip id="motorcycle48" depart="121.60" from="-214097335#4" to="992614157" departLane="best" type="motorcycle_motorcycle" departSpeed="max"/>
    <trip id="motorcycle49" depart="124.14" from="-124861817#0" to="124861809#0" departLane="best" type="motorcycle_motorcycle"/>
    <trip id="motorcycle50" depart="126.67" from="-788349071" to="-1190592106#0" departLane="best" type="motorcycle_motorcycle" departSpeed="max"/>
    <trip id="motorcycle51" depart="129.20" from="-1243425888" to="634122566#2" departLane="best" type="motorcycle_motorcycle" departSpeed="max"/>
    <trip id="motorcycle52" depart="131.74" from="214085922#3" to="-214670745#0" departLane="best" type="motorcycle_motorcycle"/>
    <trip id="motorcycle53" depart="134.27" from="-1238879358#6" to="725293625#7" departLane="best" type="motorcycle_motorcycle"/>
    <trip id="motorcycle54" depart="136.80" from="1121687687" to="214085922#4" departLane="best" type="motorcycle_motorcycle"/>
    <trip id="motorcycle55" depart="139.34" from="-665670054" to="665946596#0" departLane="best" type="motorcycle_motorcycle" departSpeed="max"/>
    <trip id="motorcycle56" depart="141.87" from="438964731" to="439133784#1" departLane="best" type="motorcycle_motorcycle" departSpeed="max"/>
    <trip id="motorcycle57" depart="144.40" from="-725293625#0" to="-1265177027#0" departLane="best" type="motorcycle_motorcycle"/>
    <trip id="motorcycle58" depart="146.94" from="1303438828#0" to="-438964730" departLane="best" type="motorcycle_motorcycle" departSpeed="max"/>
    <trip id="motorcycle59" depart="149.47" from="-1192260787" to="151522858" departLane="best" type="motorcycle_motorcycle" departSpeed="max"/>
    <trip id="motorcycle60" depart="152.01" from="-427981479" to="1187806250" departLane="best" type="motorcycle_motorcycle"/>
    <trip id="motorcycle61" depart="154.54" from="-665546552" to="391365884" departLane="best" type="motorcycle_motorcycle" departSpeed="max"/>
    <trip id="motorcycle62" depart="157.07" from="-1303445748" to="1303445747" departLane="best" type="motorcycle_motorcycle" departSpeed="max"/>
    <trip id="motorcycle63" depart="159.61" from="-124858280#5" to="214085900#1" departLane="best" type="motorcycle_motorcycle"/>
    <trip id="motorcycle64" depart="162.14" from="-608078458" to="788349070" departLane="best" type="motorcycle_motorcycle" departSpeed="max"/>
    <trip id="motorcycle65" depart="164.67" from="-214086022#7" to="-124858284#5" departLane="best" type="motorcycle_motorcycle"/>
    <trip id="motorcycle66" depart="167.21" from="-214085919#6" to="-1189817671#1" departLane="best" type="motorcycle_motorcycle"/>
    <trip id="motorcycle67" depart="169.74" from="-1243425888" to="124861825#3" departLane="best" type="motorcycle_motorcycle" departSpeed="max"/>
    <trip id="motorcycle68" depart="172.27" from="1189817148" to="-124858284#9" departLane="best" type="motorcycle_motorcycle"/>
    <trip id="motorcycle69" depart="174.81" from="1338550401" to="-1187808932" departLane="best" type="motorcycle_motorcycle"/>
    <trip id="motorcycle70" depart="177.34" from="124626689#0" to="317349751#3" departLane="best" type="motorcycle_motorcycle"/>
    <trip id="motorcycle71" depart="179.87" from="124611606#5" to="-220589495#2" departLane="best" type="motorcycle_motorcycle"/>
    <trip id="motorcycle72" depart="182.41" from="-1303445744" to="124861817#5" departLane="best" type="motorcycle_motorcycle" departSpeed="max"/>
    <trip id="motorcycle73" depart="184.94" from="214085929#1" to="124861824#2" departLane="best" type="motorcycle_motorcycle"/>
    <trip id="motorcycle74" depart="187.47" from="-439133784#1" to="124861806#5" departLane="best" type="motorcycle_motorcycle" departSpeed="max"/>
    <trip id="motorcycle75" depart="190.01" from="-124858280#1" to="1177177068#1" departLane="best" type="motorcycle_motorcycle"/>
    <trip id="motorcycle76" depart="192.54" from="-1192260787" to="-1177177536#0" departLane="best" type="motorcycle_motorcycle" departSpeed="max"/>
    <trip id="motorcycle77" depart="195.07" from="1120031777#3" to="214670699" departLane="best" type="motorcycle_motorcycle"/>
    <trip id="motorcycle78" depart="197.61" from="-1187806250" to="1177177536#1" departLane="best" type="motorcycle_motorcycle" departSpeed="max"/>
    <trip id="motorcycle79" depart="200.14" from="124861806#3" to="1192260787" departLane="best" type="motorcycle_motorcycle"/>
    <trip id="motorcycle80" depart="202.67" from="-788349070" to="-22842320#1" departLane="best" type="motorcycle_motorcycle" departSpeed="max"/>
    <trip id="motorcycle81" depart="205.21" from="1303442128#0" to="-1161004434#0" departLane="best" type="motorcycle_motorcycle" departSpeed="max"/>
    <trip id="motorcycle82" depart="207.74" from="-214085900#0" to="-124861808#2" departLane="best" type="motorcycle_motorcycle"/>
    <trip id="motorcycle83" depart="210.27" from="632266775" to="317349751#6" departLane="best" type="motorcycle_motorcycle" departSpeed="max"/>
    <trip id="motorcycle84" depart="212.81" from="438964731" to="-788863317#0" departLane="best" type="motorcycle_motorcycle" departSpeed="max"/>
    <trip id="motorcycle85" depart="215.34" from="-1176132762#6" to="124861817#5" departLane="best" type="motorcycle_motorcycle" departSpeed="max"/>
    <trip id="motorcycle86" depart="217.87" from="-124861823#3" to="725363526#1" departLane="best" type="motorcycle_motorcycle"/>
    <trip id="motorcycle87" depart="220.41" from="-1355302937" to="-124861824#3" departLane="best" type="motorcycle_motorcycle" departSpeed="max"/>
    <trip id="motorcycle88" depart="222.94" from="1192258751#0" to="-665670045#0" departLane="best" type="motorcycle_motorcycle"/>
    <trip id="motorcycle89" depart="225.47" from="-1303442127#1" to="-725363525" departLane="best" type="motorcycle_motorcycle" departSpeed="max"/>
    <trip id="motorcycle90" depart="228.01" from="-124861798#2" to="-124861824#1" departLane="best" type="motorcycle_motorcycle"/>
    <trip id="motorcycle91" depart="230.54" from="-214085919#6" to="124858284#0" departLane="best" type="motorcycle_motorcycle"/>
    <trip id="motorcycle92" depart="233.07" from="-1303445747" to="-124861813#6" departLane="best" type="motorcycle_motorcycle" departSpeed="max"/>
    <trip id="motorcycle93" depart="235.61" from="438964734" to="1177177536#1" departLane="best" type="motorcycle_motorcycle" departSpeed="max"/>
    <trip id="motorcycle94" depart="238.14" from="-391365884" to="-214085964" departLane="best" type="motorcycle_motorcycle" departSpeed="max"/>
    <trip id="motorcycle95" depart="240.67" from="124858284#0" to="214085954#3" departLane="best" type="motorcycle_motorcycle"/>
    <trip id="motorcycle96" depart="243.21" from="-124861825#10" to="124861824#3" departLane="best" type="motorcycle_motorcycle"/>
    <trip id="motorcycle97" depart="245.74" from="-1177177536#1" to="-788349080" departLane="best" type="motorcycle_motorcycle" departSpeed="max"/>
    <trip id="motorcycle98" depart="248.28" from="-1303445748" to="22842320#4" departLane="best" type="motorcycle_motorcycle" departSpeed="max"/>
    <trip id="motorcycle99" depart="250.81" from="-608078458" to="-438964730" departLane="best" type="motorcycle_motorcycle" departSpeed="max"/>
    <trip id="motorcycle100" depart="253.34" from="632266776#0" to="-1175243333" departLane="best" type="motorcycle_motorcycle"/>
    <trip id="motorcycle101" depart="255.88" from="1303442128#1" to="-214085954#4" departLane="best" type="motorcycle_motorcycle"/>
    <trip id="motorcycle102" depart="258.41" from="-124611611#3" to="1092621396#1" departLane="best" type="motorcycle_motorcycle"/>
    <trip id="motorcycle103" depart="260.94" from="1177185855" to="-788485782#8" departLane="best" type="motorcycle_motorcycle"/>
    <trip id="motorcycle104" depart="263.48" from="-725293625#7" to="1192349845" departLane="best" type="motorcycle_motorcycle"/>
    <trip id="motorcycle105" depart="266.01" from="-1303442127#1" to="1265177026#3" departLane="best" type="motorcycle_motorcycle" departSpeed="max"/>
    <trip id="motorcycle106" depart="268.54" from="124861825#3" to="-1161004434#0" departLane="best" type="motorcycle_motorcycle"/>
    <trip id="motorcycle107" depart="271.08" from="788485782#4" to="632157133#3" departLane="best" type="motorcycle_motorcycle"/>
    <trip id="motorcycle108" depart="273.61" from="-1133787479" to="214085919#1" departLane="best" type="motorcycle_motorcycle" departSpeed="max"/>
    <trip id="motorcycle109" depart="276.14" from="-1189817671#0" to="788863317#2" departLane="best" type="motorcycle_motorcycle"/>
    <trip id="motorcycle110" depart="278.68" from="-124861824#1" to="1303442127#1" departLane="best" type="motorcycle_motorcycle"/>
    <trip id="motorcycle111" depart="281.21" from="-1265177027#2" to="-214085964" departLane="best" type="motorcycle_motorcycle"/>
    <trip id="motorcycle112" depart="283.74" from="-1126532282" to="-214085954#0" departLane="best" type="motorcycle_motorcycle" departSpeed="max"/>
    <trip id="motorcycle113" depart="286.28" from="-214097343#1" to="124611616#0" departLane="best" type="motorcycle_motorcycle" departSpeed="max"/>
    <trip id="motorcycle114" depart="288.81" from="124861813#4" to="-1265177027#3" departLane="best" type="motorcycle_motorcycle"/>
    <trip id="motorcycle115" depart="291.34" from="214086022#2" to="1120031777#2" departLane="best" type="motorcycle_motorcycle"/>
    <trip id="motorcycle116" depart="293.88" from="788863317#2" to="1120175997" departLane="best" type="motorcycle_motorcycle"/>
    <trip id="motorcycle117" depart="296.41" from="-438964735#1" to="1120031777#2" departLane="best" type="motorcycle_motorcycle"/>
    <trip id="motorcycle118" depart="298.94" from="-1176131828" to="666848287#1" departLane="best" type="motorcycle_motorcycle" departSpeed="max"/>
    <trip id="motorcycle119" depart="301.48" from="-1192260787" to="1190592107" departLane="best" type="motorcycle_motorcycle" departSpeed="max"/>
    <trip id="motorcycle120" depart="304.01" from="-1303445747" to="-438964734" departLane="best" type="motorcycle_motorcycle" departSpeed="max"/>
    <trip id="motorcycle121" depart="306.54" from="-214670745#1" to="124861825#0" departLane="best" type="motorcycle_motorcycle"/>
    <trip id="motorcycle122" depart="309.08" from="-439133784#1" to="214085900#1" departLane="best" type="motorcycle_motorcycle" departSpeed="max"/>
    <trip id="motorcycle123" depart="311.61" from="788485782#8" to="124861806#4" departLane="best" type="motorcycle_motorcycle"/>
    <trip id="motorcycle124" depart="314.14" from="214670700#0" to="214085900#1" departLane="best" type="motorcycle_motorcycle"/>
    <trip id="motorcycle125" depart="316.68" from="438964735#0" to="665670052" departLane="best" type="motorcycle_motorcycle"/>
    <trip id="motorcycle126" depart="319.21" from="-124861817#4" to="1176132762#3" departLane="best" type="motorcycle_motorcycle"/>
    <trip id="motorcycle127" depart="321.74" from="-214085919#1" to="124861825#6" departLane="best" type="motorcycle_motorcycle"/>
    <trip id="motorcycle128" depart="324.28" from="-214085901#0" to="1190739960" departLane="best" type="motorcycle_motorcycle"/>
    <trip id="motorcycle129" depart="326.81" from="-1187806250" to="1189818147" departLane="best" type="motorcycle_motorcycle" departSpeed="max"/>
    <trip id="motorcycle130" depart="329.34" from="-214085919#0" to="1121689775#1" departLane="best" type="motorcycle_motorcycle"/>
    <trip id="motorcycle131" depart="331.88" from="-1120175972" to="788863317#0" departLane="best" type="motorcycle_motorcycle" departSpeed="max"/>
    <trip id="motorcycle132" depart="334.41" from="-124861794#1" to="-1161004434#0" departLane="best" type="motorcycle_motorcycle"/>
    <trip id="motorcycle133" depart="336.94" from="1120036792#1" to="-1187808932" departLane="best" type="motorcycle_motorcycle"/>
    <trip id="motorcycle134" depart="339.48" from="-1126750042" to="1189813847" departLane="best" type="motorcycle_motorcycle"/>
    <trip id="motorcycle135" depart="342.01" from="-1189817671#2" to="-1197065297#0" departLane="best" type="motorcycle_motorcycle"/>
    <trip id="motorcycle136" depart="344.54" from="788448077" to="-438962718" departLane="best" type="motorcycle_motorcycle"/>
    <trip id="motorcycle137" depart="347.08" from="214085964" to="317349751#2" departLane="best" type="motorcycle_motorcycle" departSpeed="max"/>
    <trip id="motorcycle138" depart="349.61" from="-439127291#1" to="220589497#0" departLane="best" type="motorcycle_motorcycle" departSpeed="max"/>
    <trip id="motorcycle139" depart="352.15" from="-214085913#0" to="665670054" departLane="best" type="motorcycle_motorcycle"/>
    <trip id="motorcycle140" depart="354.68" from="1274644224" to="124861823#7" departLane="best" type="motorcycle_motorcycle"/>
    <trip id="motorcycle141" depart="357.21" from="214670745#0" to="1303445748" departLane="best" type="motorcycle_motorcycle"/>
    <trip id="motorcycle142" depart="359.75" from="317349752#1" to="1093036737" departLane="best" type="motorcycle_motorcycle"/>
    <trip id="motorcycle143" depart="362.28" from="-391365884" to="-725363522#1" departLane="best" type="motorcycle_motorcycle" departSpeed="max"/>
    <trip id="motorcycle144" depart="364.81" from="-317227550#1" to="124858280#4" departLane="best" type="motorcycle_motorcycle" departSpeed="max"/>
    <trip id="motorcycle145" depart="367.35" from="-1176132762#6" to="439133784#1" departLane="best" type="motorcycle_motorcycle" departSpeed="max"/>
    <trip id="motorcycle146" depart="369.88" from="1175243334" to="-1190592106#0" departLane="best" type="motorcycle_motorcycle"/>
    <trip id="motorcycle147" depart="372.41" from="-1177177068#1" to="-665546553" departLane="best" type="motorcycle_motorcycle" departSpeed="max"/>
    <trip id="motorcycle148" depart="374.95" from="-317349751#6" to="317227550#1" departLane="best" type="motorcycle_motorcycle" departSpeed="max"/>
    <trip id="motorcycle149" depart="377.48" from="214085964" to="214086022#6" departLane="best" type="motorcycle_motorcycle" departSpeed="max"/>
    <trip id="motorcycle150" depart="380.01" from="1265177027#3" to="1192349845" departLane="best" type="motorcycle_motorcycle"/>
    <trip id="motorcycle151" depart="382.55" from="-124861817#3" to="-1175243333" departLane="best" type="motorcycle_motorcycle"/>
    <trip id="motorcycle152" depart="385.08" from="-608078458" to="-214085969" departLane="best" type="motorcycle_motorcycle" departSpeed="max"/>
    <trip id="motorcycle153" depart="387.61" from="1189817671#2" to="1177177536#1" departLane="best" type="motorcycle_motorcycle"/>
    <trip id="motorcycle154" depart="390.15" from="438964732" to="725363522#0" departLane="best" type="motorcycle_motorcycle" departSpeed="max"/>
    <trip id="motorcycle155" depart="392.68" from="-788349074#1" to="1187806250" departLane="best" type="motorcycle_motorcycle" departSpeed="max"/>
    <trip id="motorcycle156" depart="395.21" from="-725293625#1" to="1121689775#0" departLane="best" type="motorcycle_motorcycle"/>
    <trip id="motorcycle157" depart="397.75" from="-1176132762#6" to="-317349751#2" departLane="best" type="motorcycle_motorcycle" departSpeed="max"/>
    <trip id="motorcycle158" depart="400.28" from="-124861825#2" to="-124861798#0" departLane="best" type="motorcycle_motorcycle"/>
    <trip id="motorcycle159" depart="402.81" from="-1355302937" to="1303445748" departLane="best" type="motorcycle_motorcycle" departSpeed="max"/>
    <trip id="motorcycle160" depart="405.35" from="-665546552" to="1192349845" departLane="best" type="motorcycle_motorcycle" departSpeed="max"/>
    <trip id="motorcycle161" depart="407.88" from="-439133784#0" to="-1177178389#0" departLane="best" type="motorcycle_motorcycle"/>
    <trip id="motorcycle162" depart="410.41" from="214086020" to="214085900#1" departLane="best" type="motorcycle_motorcycle" departSpeed="max"/>
    <trip id="motorcycle163" depart="412.95" from="-124861806#3" to="124861802#2" departLane="best" type="motorcycle_motorcycle"/>
    <trip id="motorcycle164" depart="415.48" from="-22842320#3" to="22842320#1" departLane="best" type="motorcycle_motorcycle"/>
    <trip id="motorcycle165" depart="418.01" from="1175243333" to="788391001" departLane="best" type="motorcycle_motorcycle" departSpeed="max"/>
    <trip id="motorcycle166" depart="420.55" from="-214085929#2" to="-439133786" departLane="best" type="motorcycle_motorcycle"/>
    <trip id="motorcycle167" depart="423.08" from="-665670054" to="-1175243333" departLane="best" type="motorcycle_motorcycle" departSpeed="max"/>
    <trip id="motorcycle168" depart="425.61" from="-124861796#2" to="1126750041#1" departLane="best" type="motorcycle_motorcycle"/>
    <trip id="motorcycle169" depart="428.15" from="-22842320#8" to="608078456" departLane="best" type="motorcycle_motorcycle"/>
    <trip id="motorcycle170" depart="430.68" from="665946596#1" to="-438964731" departLane="best" type="motorcycle_motorcycle"/>
    <trip id="motorcycle171" depart="433.21" from="-124611617#3" to="438962717#1" departLane="best" type="motorcycle_motorcycle" departSpeed="max"/>
    <trip id="motorcycle172" depart="435.75" from="-220589497#2" to="439127291#1" departLane="best" type="motorcycle_motorcycle" departSpeed="max"/>
    <trip id="motorcycle173" depart="438.28" from="-214670718" to="-214085964" departLane="best" type="motorcycle_motorcycle" departSpeed="max"/>
    <trip id="motorcycle174" depart="440.81" from="-1126750036" to="-1171539006" departLane="best" type="motorcycle_motorcycle" departSpeed="max"/>
    <trip id="motorcycle175" depart="443.35" from="214085919#5" to="1120175988" departLane="best" type="motorcycle_motorcycle"/>
    <trip id="motorcycle176" depart="445.88" from="124861802#3" to="214086022#11" departLane="best" type="motorcycle_motorcycle"/>
    <trip id="motorcycle177" depart="448.42" from="-124861809#1" to="-124861823#6" departLane="best" type="motorcycle_motorcycle"/>
    <trip id="motorcycle178" depart="450.95" from="-1126750036" to="-438964734" departLane="best" type="motorcycle_motorcycle" departSpeed="max"/>
    <trip id="motorcycle179" depart="453.48" from="-1187806250" to="102404324#0" departLane="best" type="motorcycle_motorcycle" departSpeed="max"/>
    <trip id="motorcycle180" depart="456.02" from="124861823#3" to="-665670045#0" departLane="best" type="motorcycle_motorcycle"/>
    <trip id="motorcycle181" depart="458.55" from="-1303468358" to="-1265177026#3" departLane="best" type="motorcycle_motorcycle" departSpeed="max"/>
    <trip id="motorcycle182" depart="461.08" from="-608078458" to="1176132762#6" departLane="best" type="motorcycle_motorcycle" departSpeed="max"/>
    <trip id="motorcycle183" depart="463.62" from="-214670699" to="1274598667#0" departLane="best" type="motorcycle_motorcycle" departSpeed="max"/>
    <trip id="motorcycle184" depart="466.15" from="214670744#0" to="214085994#1" departLane="best" type="motorcycle_motorcycle"/>
    <trip id="motorcycle185" depart="468.68" from="-124861796#5" to="1192343719" departLane="best" type="motorcycle_motorcycle"/>
    <trip id="motorcycle186" depart="471.22" from="1303442128#0" to="-788485782#3" departLane="best" type="motorcycle_motorcycle" departSpeed="max"/>
    <trip id="motorcycle187" depart="473.75" from="124861802#0" to="-788485782#5" departLane="best" type="motorcycle_motorcycle"/>
    <trip id="motorcycle188" depart="476.28" from="1171539006" to="214085922#2" departLane="best" type="motorcycle_motorcycle"/>
    <trip id="motorcycle189" depart="478.82" from="1179972278#3" to="214085900#0" departLane="best" type="motorcycle_motorcycle"/>
    <trip id="motorcycle190" depart="481.35" from="725293625#2" to="-632157133#2" departLane="best" type="motorcycle_motorcycle"/>
    <trip id="motorcycle191" depart="483.88" from="-427981479" to="-124861823#7" departLane="best" type="motorcycle_motorcycle"/>
    <trip id="motorcycle192" depart="486.42" from="-1243425888" to="1235814456#0" departLane="best" type="motorcycle_motorcycle" departSpeed="max"/>
    <trip id="motorcycle193" depart="488.95" from="-214085908#1" to="-124861796#0" departLane="best" type="motorcycle_motorcycle" departSpeed="max"/>
    <trip id="motorcycle194" depart="491.48" from="-788349074#1" to="-214085922#3" departLane="best" type="motorcycle_motorcycle" departSpeed="max"/>
    <trip id="motorcycle195" depart="494.02" from="-214670699" to="-124861802#8" departLane="best" type="motorcycle_motorcycle" departSpeed="max"/>
    <trip id="motorcycle196" depart="496.55" from="-1303445744" to="124861825#8" departLane="best" type="motorcycle_motorcycle" departSpeed="max"/>
    <trip id="motorcycle197" depart="499.08" from="-1303468358" to="-124861813#4" departLane="best" type="motorcycle_motorcycle" departSpeed="max"/>
    <trip id="motorcycle198" depart="501.62" from="788485782#8" to="439133784#1" departLane="best" type="motorcycle_motorcycle"/>
    <trip id="motorcycle199" depart="504.15" from="-788485782#8" to="1177185855" departLane="best" type="motorcycle_motorcycle"/>
    <trip id="motorcycle200" depart="506.68" from="-214085982#0" to="317349751#3" departLane="best" type="motorcycle_motorcycle"/>
    <trip id="motorcycle201" depart="509.22" from="1303438828#0" to="788863317#0" departLane="best" type="motorcycle_motorcycle" departSpeed="max"/>
    <trip id="motorcycle202" depart="511.75" from="124861802#8" to="788390993" departLane="best" type="motorcycle_motorcycle"/>
    <trip id="motorcycle203" depart="514.28" from="-1120175972" to="-214086022#4" departLane="best" type="motorcycle_motorcycle" departSpeed="max"/>
    <trip id="motorcycle204" depart="516.82" from="-1189817148" to="124861794#1" departLane="best" type="motorcycle_motorcycle"/>
    <trip id="motorcycle205" depart="519.35" from="438964730" to="1177177536#1" departLane="best" type="motorcycle_motorcycle" departSpeed="max"/>
    <trip id="motorcycle206" depart="521.88" from="1303442128#0" to="-124858280#2" departLane="best" type="motorcycle_motorcycle" departSpeed="max"/>
    <trip id="motorcycle207" depart="524.42" from="-124858280#1" to="1177177068#1" departLane="best" type="motorcycle_motorcycle"/>
    <trip id="motorcycle208" depart="526.95" from="214670745#0" to="-665670045#0" departLane="best" type="motorcycle_motorcycle"/>