<?xml version="1.0" encoding="UTF-8"?>

<!-- generated on 2025-11-02 03:38:59.068362 by osmWebWizard.py UNKNOWN
<configuration>
    <net-file value="/home/vishwajit/2025-11-02-03-38-48/osm.net.xml.gz"/>
    <output-trip-file value="/home/vishwajit/2025-11-02-03-38-48/osm.passenger.trips.xml"/>
    <route-file value="/home/vishwajit/2025-11-02-03-38-48/osm.passenger.rou.xml"/>
    <prefix value="veh"/>
    <trip-attributes value="departLane=&quot;best&quot;"/>
    <fringe-start-attributes value="departSpeed=&quot;max&quot;"/>
    <vehicle-class value="passenger"/>
    <lanes value="True"/>
    <fringe-factor value="10"/>
    <allow-fringe.min-length value="1000.0"/>
    <edge-permission value="passenger"/>
    <via-edge-types value="highway.motorway,highway.motorway_link,highway.trunk_link,highway.primary_link,highway.secondary_link,highway.tertiary_link"/>
    <seed value="44"/>
    <min-distance value="300.0"/>
    <min-distance.fringe value="10.0"/>
    <remove-loops value="True"/>
    <insertion-density value="20.0"/>
</configuration>
-->

<routes xmlns:xsi="http://www.w3.org/2001/XMLSchema-instance" xsi:noNamespaceSchemaLocation="http://sumo.dlr.de/xsd/routes_file.xsd">
    <vType id="veh_passenger" vClass="passenger"/>
    <trip id="veh0" depart="0.00" from="22842320#7" to="-214085969" departLane="best" type="veh_passenger"/>
    <trip id="veh1" depart="2.53" from="-124861809#1" to="-1176132762#2" departLane="best" type="veh_passenger"/>
    <trip id="veh2" depart="5.07" from="-1192343719" to="1197065297#1" departLane="best" type="veh_passenger" departSpeed="max"/>
    <trip id="veh3" depart="7.60" from="124861813#0" to="102404324#3" departLane="best" type="veh_passenger"/>
    <trip id="veh4" depart="10.13" from="-1161004434#1" to="439133784#1" departLane="best" type="veh_passenger"/>
    <trip id="veh5" depart="12.67" from="1179972278#1" to="-124861817#2" departLane="best" type="veh_passenger"/>
    <trip id="veh6" depart="15.20" from="1187808932" to="788390993" departLane="best" type="veh_passenger" departSpeed="max"/>
    <trip id="veh7" depart="17.73" from="-1120175997" to="1126750036" departLane="best" type="veh_passenger" departSpeed="max"/>
    <trip id="veh8" depart="20.27" from="-665546552" to="665946597#0" departLane="best" type="veh_passenger" departSpeed="max"/>
    <trip id="veh9" depart="22.80" from="-124861823#5" to="-1190592107" departLane="best" type="veh_passenger"/>
    <trip id="veh10" depart="25.33" from="124861796#5" to="317349751#6" departLane="best" type="veh_passenger"/>
    <trip id="veh11" depart="27.87" from="-438964728" to="-1187808932" departLane="best" type="veh_passenger"/>
    <trip id="veh12" depart="30.40" from="124861824#2" to="214085994#1" departLane="best" type="veh_passenger"/>
    <trip id="veh13" depart="32.93" from="214085922#6" to="1303633133" departLane="best" type="veh_passenger"/>
    <trip id="veh14" depart="35.47" from="-214086022#11" to="391365884" departLane="best" type="veh_passenger"/>
    <trip id="veh15" depart="38.00" from="124611604#0" to="124611611#4" departLane="best" type="veh_passenger"/>
    <trip id="veh16" depart="40.53" from="991860327" to="1120035412#2" departLane="best" type="veh_passenger" departSpeed="max"/>
    <trip id="veh17" depart="43.07" from="-124858280#0" to="-124861817#1" departLane="best" type="veh_passenger"/>
    <trip id="veh18" depart="45.60" from="1187808932" to="-124861824#3" departLane="best" type="veh_passenger" departSpeed="max"/>
    <trip id="veh19" depart="48.13" from="-1243425888" to="1274591320#1" departLane="best" type="veh_passenger" departSpeed="max"/>
    <trip id="veh20" depart="50.67" from="-1303633133" to="1274598667#1" departLane="best" type="veh_passenger" departSpeed="max"/>
    <trip id="veh21" depart="53.20" from="-1303445744" to="-1120175987" departLane="best" type="veh_passenger" departSpeed="max"/>
    <trip id="veh22" depart="55.74" from="-1303445744" to="1303633133" departLane="best" type="veh_passenger" departSpeed="max"/>
    <trip id="veh23" depart="58.27" from="1187808932" to="-214086022#3" departLane="best" type="veh_passenger" departSpeed="max"/>
    <trip id="veh24" depart="60.80" from="-1303445747" to="788349074#0" departLane="best" type="veh_passenger" departSpeed="max"/>
    <trip id="veh25" depart="63.34" from="-788349070" to="608078456" departLane="best" type="veh_passenger" departSpeed="max"/>
    <trip id="veh26" depart="65.87" from="-665670054" to="-632157133#1" departLane="best" type="veh_passenger" departSpeed="max"/>
    <trip id="veh27" depart="68.40" from="-788485782#5" to="725363523#1" departLane="best" type="veh_passenger"/>
    <trip id="veh28" depart="70.94" from="665670045#0" to="1303438828#1" departLane="best" type="veh_passenger" departSpeed="max"/>
    <trip id="veh29" depart="73.47" from="-1171539006" to="1177177536#1" departLane="best" type="veh_passenger"/>
    <trip id="veh30" depart="76.00" from="-1176132762#5" to="665670052" departLane="best" type="veh_passenger"/>
    <trip id="veh31" depart="78.54" from="-788391001" to="427981479" departLane="best" type="veh_passenger" departSpeed="max"/>
    <trip id="veh32" depart="81.07" from="-124861819#1" to="214085900#0" departLane="best" type="veh_passenger"/>
    <trip id="veh33" depart="83.60" from="-1303445744" to="1171539006" departLane="best" type="veh_passenger" departSpeed="max"/>
    <trip id="veh34" depart="86.14" from="-1190739960" to="725363523#3" departLane="best" type="veh_passenger" departSpeed="max"/>
    <trip id="veh35" depart="88.67" from="-124861824#1" to="-315474037" departLane="best" type="veh_passenger"/>
    <trip id="veh36" depart="91.20" from="1171540751" to="1238879358#2" departLane="best" type="veh_passenger"/>
    <trip id="veh37" depart="93.74" from="-214085908#1" to="102404324#1" departLane="best" type="veh_passenger" departSpeed="max"/>
    <trip id="veh38" depart="96.27" from="665546553" to="1303447190" departLane="best" type="veh_passenger" departSpeed="max"/>
    <trip id="veh39" depart="98.80" from="214085964" to="1126532282" departLane="best" type="veh_passenger" departSpeed="max"/>
    <trip id="veh40" depart="101.34" from="124861808#1" to="1179972278#3" departLane="best" type="veh_passenger"/>
    <trip id="veh41" depart="103.87" from="-124861806#2" to="1340045737#1" departLane="best" type="veh_passenger"/>
    <trip id="veh42" depart="106.40" from="1274591321" to="-1120036792#0" departLane="best" type="veh_passenger" departSpeed="max"/>
    <trip id="veh43" depart="108.94" from="-214085900#1" to="1243425888" departLane="best" type="veh_passenger" departSpeed="max"/>
    <trip id="veh44" depart="111.47" from="-124861798#2" to="-1265177026#2" departLane="best" type="veh_passenger"/>
    <trip id="veh45" depart="114.00" from="-1189813847" to="1126750041#1" departLane="best" type="veh_passenger" departSpeed="max"/>
    <trip id="veh46" depart="116.54" from="-214085900#1" to="-1265177026#0" departLane="best" type="veh_passenger" departSpeed="max"/>
    <trip id="veh47" depart="119.07" from="632266774#0" to="1265177026#1" departLane="best" type="veh_passenger"/>
    <trip id="veh48" depart="121.60" from="124861802#4" to="1303633133" departLane="best" type="veh_passenger"/>
    <trip id="veh49" depart="124.14" from="-214085919#3" to="124861808#3" departLane="best" type="veh_passenger"/>
    <trip id="veh50" depart="126.67" from="-214085908#1" to="1293647948" departLane="best" type="veh_passenger" departSpeed="max"/>
    <trip id="veh51" depart="129.20" from="214086020" to="-1175243333" departLane="best" type="veh_passenger" departSpeed="max"/>
    <trip id="veh52" depart="131.74" from="632266775" to="-214085919#7" departLane="best" type="veh_passenger" departSpeed="max"/>
    <trip id="veh53" depart="134.27" from="-124861823#6" to="-439133786" departLane="best" type="veh_passenger"/>
    <trip id="veh54" depart="136.80" from="-1192260787" to="-438964732" departLane="best" type="veh_passenger" departSpeed="max"/>
    <trip id="veh55" depart="139.34" from="124626678#1" to="-214085969" departLane="best" type="veh_passenger"/>
    <trip id="veh56" depart="141.87" from="-1243425888" to="1179972278#5" departLane="best" type="veh_passenger" departSpeed="max"/>
    <trip id="veh57" depart="144.40" from="438964732" to="1189813847" departLane="best" type="veh_passenger" departSpeed="max"/>
    <trip id="veh58" depart="146.94" from="214085919#4" to="1303633133" departLane="best" type="veh_passenger"/>
    <trip id="veh59" depart="149.47" from="438964730" to="1192258751#2" departLane="best" type="veh_passenger" departSpeed="max"/>
    <trip id="veh60" depart="152.01" from="-214670699" to="1187806250" departLane="best" type="veh_passenger" departSpeed="max"/>
    <trip id="veh61" depart="154.54" from="-124611617#3" to="439127291#1" departLane="best" type="veh_passenger" departSpeed="max"/>
    <trip id="veh62" depart="157.07" from="-665670052" to="1274591320#0" departLane="best" type="veh_passenger" departSpeed="max"/>
    <trip id="veh63" depart="159.61" from="-124861809#0" to="1176132762#6" departLane="best" type="veh_passenger"/>
    <trip id="veh64" depart="162.14" from="-1120175972" to="-439133786" departLane="best" type="veh_passenger" departSpeed="max"/>
    <trip id="veh65" depart="164.67" from="-1091258062" to="316354133#0" departLane="best" type="veh_passenger" departSpeed="max"/>
    <trip id="veh66" depart="167.21" from="-1355302937" to="-214085969" departLane="best" type="veh_passenger" departSpeed="max"/>
    <trip id="veh67" depart="169.74" from="1192258751#0" to="1303442127#1" departLane="best" type="veh_passenger"/>
    <trip id="veh68" depart="172.27" from="-214085919#7" to="214085908#1" departLane="best" type="veh_passenger"/>
    <trip id="veh69" depart="174.81" from="438964717" to="1092621396#1" departLane="best" type="veh_passenger" departSpeed="max"/>
    <trip id="veh70" depart="177.34" from="-665946598" to="-1120036792#1" departLane="best" type="veh_passenger"/>
    <trip id="veh71" depart="179.87" from="1161004434#0" to="-665670045#0" departLane="best" type="veh_passenger" departSpeed="max"/>
    <trip id="veh72" depart="182.41" from="124611611#1" to="214097335#4" departLane="best" type="veh_passenger"/>
    <trip id="veh73" depart="184.94" from="-214085982#6" to="1303445744" departLane="best" type="veh_passenger" departSpeed="max"/>
    <trip id="veh74" depart="187.47" from="665670045#0" to="-214085964" departLane="best" type="veh_passenger" departSpeed="max"/>
    <trip id="veh75" depart="190.01" from="214085954#2" to="1189818147" departLane="best" type="veh_passenger"/>
    <trip id="veh76" depart="192.54" from="665670045#0" to="-124626678#1" departLane="best" type="veh_passenger" departSpeed="max"/>
    <trip id="veh77" depart="195.07" from="-214670718" to="-214085929#2" departLane="best" type="veh_passenger" departSpeed="max"/>
    <trip id="veh78" depart="197.61" from="-1265177026#3" to="634122566#2" departLane="best" type="veh_passenger"/>
    <trip id="veh79" depart="200.14" from="-788390993" to="1120035413" departLane="best" type="veh_passenger" departSpeed="max"/>
    <trip id="veh80" depart="202.67" from="-665946596#1" to="725363523#3" departLane="best" type="veh_passenger"/>
    <trip id="veh81" depart="205.21" from="-214085956" to="-22842320#7" departLane="best" type="veh_passenger"/>
    <trip id="veh82" depart="207.74" from="438964731" to="1243425888" departLane="best" type="veh_passenger" departSpeed="max"/>
    <trip id="veh83" depart="210.27" from="-1120175972" to="-1161004434#0" departLane="best" type="veh_passenger" departSpeed="max"/>
    <trip id="veh84" depart="212.81" from="1192258751#1" to="-124861817#4" departLane="best" type="veh_passenger"/>
    <trip id="veh85" depart="215.34" from="-220589494#1" to="666848287#1" departLane="best" type="veh_passenger"/>
    <trip id="veh86" depart="217.87" from="1161004434#0" to="1303445747" departLane="best" type="veh_passenger" departSpeed="max"/>
    <trip id="veh87" depart="220.41" from="632266775" to="788479939" departLane="best" type="veh_passenger" departSpeed="max"/>
    <trip id="veh88" depart="222.94" from="-788390993" to="-124861817#3" departLane="best" type="veh_passenger" departSpeed="max"/>
    <trip id="veh89" depart="225.47" from="-124861796#0" to="-438964731" departLane="best" type="veh_passenger"/>
    <trip id="veh90" depart="228.01" from="-1303445746" to="-315474037" departLane="best" type="veh_passenger"/>
    <trip id="veh91" depart="230.54" from="214085982#4" to="1243425888" departLane="best" type="veh_passenger"/>
    <trip id="veh92" depart="233.07" from="-1176132762#6" to="1192349845" departLane="best" type="veh_passenger" departSpeed="max"/>
    <trip id="veh93" depart="235.61" from="-124626678#0" to="-1161004434#0" departLane="best" type="veh_passenger"/>
    <trip id="veh94" depart="238.14" from="-214085954#0" to="-1189817147#0" departLane="best" type="veh_passenger"/>
    <trip id="veh95" depart="240.67" from="-214085922#4" to="1265177027#1" departLane="best" type="veh_passenger"/>
    <trip id="veh96" depart="243.21" from="-788391001" to="124861803#2" departLane="best" type="veh_passenger" departSpeed="max"/>
    <trip id="veh97" depart="245.74" from="-1192343719" to="-1189817671#1" departLane="best" type="veh_passenger" departSpeed="max"/>
    <trip id="veh98" depart="248.28" from="1303438828#0" to="214085908#1" departLane="best" type="veh_passenger" departSpeed="max"/>
    <trip id="veh99" depart="250.81" from="-214085900#0" to="214085982#6" departLane="best" type="veh_passenger"/>
    <trip id="veh100" depart="253.34" from="-1303468358" to="124861813#3" departLane="best" type="veh_passenger" departSpeed="max"/>
    <trip id="veh101" depart="255.88" from="49591787#1" to="1186853110" departLane="best" type="veh_passenger"/>
    <trip id="veh102" depart="258.41" from="1177178389#3" to="788485782#5" departLane="best" type="veh_passenger"/>
    <trip id="veh103" depart="260.94" from="-665946595#0" to="-317349751#4" departLane="best" type="veh_passenger"/>
    <trip id="veh104" depart="263.48" from="-214085922#3" to="-439133786" departLane="best" type="veh_passenger"/>
    <trip id="veh105" depart="266.01" from="1338550401" to="-320394882" departLane="best" type="veh_passenger"/>
    <trip id="veh106" depart="268.54" from="214670700#1" to="214085900#1" departLane="best" type="veh_passenger"/>
    <trip id="veh107" depart="271.08" from="627612999" to="124858280#0" departLane="best" type="veh_passenger" departSpeed="max"/>
    <trip id="veh108" depart="273.61" from="-1190750307" to="665670054" departLane="best" type="veh_passenger" departSpeed="max"/>
    <trip id="veh109" depart="276.14" from="-788349071" to="1121687687" departLane="best" type="veh_passenger" departSpeed="max"/>
    <trip id="veh110" depart="278.68" from="-1176132762#5" to="665670052" departLane="best" type="veh_passenger"/>
    <trip id="veh111" depart="281.21" from="1190592106#0" to="665946595#1" departLane="best" type="veh_passenger" departSpeed="max"/>
    <trip id="veh112" depart="283.74" from="-214086022#7" to="788349070" departLane="best" type="veh_passenger"/>
    <trip id="veh113" depart="286.28" from="-665946595#1" to="1274598669#0" departLane="best" type="veh_passenger" departSpeed="max"/>
    <trip id="veh114" depart="288.81" from="-788485782#3" to="-1058975065" departLane="best" type="veh_passenger"/>
    <trip id="veh115" depart="291.34" from="-1265177026#2" to="-214086020" departLane="best" type="veh_passenger"/>
    <trip id="veh116" depart="293.88" from="1238879358#2" to="1187806250" departLane="best" type="veh_passenger"/>
    <trip id="veh117" depart="296.41" from="788485782#6" to="788349070" departLane="best" type="veh_passenger"/>
    <trip id="veh118" depart="298.94" from="-214085900#1" to="-1177178389#1" departLane="best" type="veh_passenger" departSpeed="max"/>
    <trip id="veh119" depart="301.48" from="-1243425888" to="1177177068#1" departLane="best" type="veh_passenger" departSpeed="max"/>
    <trip id="veh120" depart="304.01" from="-391365884" to="1177177068#1" departLane="best" type="veh_passenger" departSpeed="max"/>
    <trip id="veh121" depart="306.54" from="-1176132762#6" to="-665946598" departLane="best" type="veh_passenger" departSpeed="max"/>
    <trip id="veh122" depart="309.08" from="124861802#8" to="-214086022#13" departLane="best" type="veh_passenger"/>
    <trip id="veh123" depart="311.61" from="124861821#2" to="1120175997" departLane="best" type="veh_passenger"/>
    <trip id="veh124" depart="314.14" from="-214085902" to="1235814456#1" departLane="best" type="veh_passenger"/>
    <trip id="veh125" depart="316.68" from="-1303633133" to="1126750041#1" departLane="best" type="veh_passenger" departSpeed="max"/>
    <trip id="veh126" depart="319.21" from="1120052249#0" to="-317349751#3" departLane="best" type="veh_passenger"/>
    <trip id="veh127" depart="321.74" from="22842320#1" to="-632157133#3" departLane="best" type="veh_passenger"/>
    <trip id="veh128" depart="324.28" from="124861812#2" to="788349072" departLane="best" type="veh_passenger"/>
    <trip id="veh129" depart="326.81" from="-1187815339" to="666848287#1" departLane="best" type="veh_passenger" departSpeed="max"/>
    <trip id="veh130" depart="329.34" from="725363523#3" to="-1303447190" departLane="best" type="veh_passenger"/>
    <trip id="veh131" depart="331.88" from="-1126750036" to="-124861825#6" departLane="best" type="veh_passenger" departSpeed="max"/>
    <trip id="veh132" depart="334.41" from="-124861825#5" to="-1161004434#0" departLane="best" type="veh_passenger"/>
    <trip id="veh133" depart="336.94" from="-214086021#1" to="-1197065297#0" departLane="best" type="veh_passenger"/>
    <trip id="veh134" depart="339.48" from="-124861817#5" to="632266776#1" departLane="best" type="veh_passenger" departSpeed="max"/>
    <trip id="veh135" depart="342.01" from="-1120175997" to="-124861824#1" departLane="best" type="veh_passenger" departSpeed="max"/>
    <trip id="veh136" depart="344.54" from="-124861794#1" to="1121687687" departLane="best" type="veh_passenger"/>
    <trip id="veh137" depart="347.08" from="665546553" to="-124858284#7" departLane="best" type="veh_passenger" departSpeed="max"/>
    <trip id="veh138" depart="349.61" from="214670747" to="1303633133" departLane="best" type="veh_passenger" departSpeed="max"/>
    <trip id="veh139" depart="352.15" from="-317349751#3" to="1303445748" departLane="best" type="veh_passenger"/>
    <trip id="veh140" depart="354.68" from="-1192260787" to="124861806#1" departLane="best" type="veh_passenger" departSpeed="max"/>
    <trip id="veh141" depart="357.21" from="124858284#1" to="1303438828#1" departLane="best" type="veh_passenger"/>
    <trip id="veh142" depart="359.75" from="214085929#1" to="788485782#0" departLane="best" type="veh_passenger"/>
    <trip id="veh143" depart="362.28" from="124861794#1" to="-22842320#8" departLane="best" type="veh_passenger"/>
    <trip id="veh144" depart="364.81" from="214085982#3" to="124626678#1" departLane="best" type="veh_passenger"/>
    <trip id="veh145" depart="367.35" from="1274591321" to="214086022#5" departLane="best" type="veh_passenger" departSpeed="max"/>
    <trip id="veh146" depart="369.88" from="1340045787" to="1303445744" departLane="best" type="veh_passenger"/>
    <trip id="veh147" depart="372.41" from="-320394882" to="1279835185" departLane="best" type="veh_passenger"/>
    <trip id="veh148" depart="374.95" from="-1189813847" to="1355302937" departLane="best" type="veh_passenger" departSpeed="max"/>
    <trip id="veh149" depart="377.48" from="-214086021#3" to="1274598670#0" departLane="best" type="veh_passenger"/>
    <trip id="veh150" depart="380.01" from="-1303445744" to="-315474037" departLane="best" type="veh_passenger" departSpeed="max"/>
    <trip id="veh151" depart="382.55" from="-1192258751#1" to="1303633133" departLane="best" type="veh_passenger"/>
    <trip id="veh152" depart="385.08" from="780247592#0" to="317349751#1" departLane="best" type="veh_passenger" departSpeed="max"/>
    <trip id="veh153" depart="387.61" from="-1190739960" to="-124861812#2" departLane="best" type="veh_passenger" departSpeed="max"/>
    <trip id="veh154" depart="390.15" from="214086022#9" to="1175243334" departLane="best" type="veh_passenger"/>
    <trip id="veh155" depart="392.68" from="-1120175972" to="-124861813#0" departLane="best" type="veh_passenger" departSpeed="max"/>
    <trip id="veh156" depart="395.21" from="-1120175997" to="214085919#3" departLane="best" type="veh_passenger" departSpeed="max"/>
    <trip id="veh157" depart="397.75" from="-1133787479" to="-665546553" departLane="best" type="veh_passenger" departSpeed="max"/>
    <trip id="veh158" depart="400.28" from="-1197065299" to="124861823#1" departLane="best" type="veh_passenger" departSpeed="max"/>
    <trip id="veh159" depart="402.81" from="214085969" to="214086021#2" departLane="best" type="veh_passenger" departSpeed="max"/>
    <trip id="veh160" depart="405.35" from="1274591321" to="1171540750#0" departLane="best" type="veh_passenger" departSpeed="max"/>
    <trip id="veh161" depart="407.88" from="124861825#3" to="665946595#0" departLane="best" type="veh_passenger"/>
    <trip id="veh162" depart="410.41" from="1179972278#0" to="-1303443733" departLane="best" type="veh_passenger"/>
    <trip id="veh163" depart="412.95" from="214086022#3" to="-1187808932" departLane="best" type="veh_passenger"/>
    <trip id="veh164" depart="415.48" from="1274591321" to="1177177068#1" departLane="best" type="veh_passenger" departSpeed="max"/>
    <trip id="veh165" depart="418.01" from="1120035416#0" to="1171540751" departLane="best" type="veh_passenger"/>
    <trip id="veh166" depart="420.55" from="438964735#1" to="124861821#3" departLane="best" type="veh_passenger"/>
    <trip id="veh167" depart="423.08" from="438964717" to="1186853110" departLane="best" type="veh_passenger" departSpeed="max"/>
    <trip id="veh168" depart="425.61" from="-665670054" to="632266776#1" departLane="best" type="veh_passenger" departSpeed="max"/>
    <trip id="veh169" depart="428.15" from="-124861817#5" to="1303447190" departLane="best" type="veh_passenger" departSpeed="max"/>
    <trip id="veh170" depart="430.68" from="124861825#3" to="1303445746" departLane="best" type="veh_passenger"/>
    <trip id="veh171" depart="433.21" from="-1192343719" to="608078458" departLane="best" type="veh_passenger" departSpeed="max"/>
    <trip id="veh172" depart="435.75" from="-665946595#1" to="-124861819#0" departLane="best" type="veh_passenger" departSpeed="max"/>
    <trip id="veh173" depart="438.28" from="-124861796#0" to="-124861825#3" departLane="best" type="veh_passenger"/>
    <trip id="veh174" depart="440.81" from="-1190750307" to="1235814456#0" departLane="best" type="veh_passenger" departSpeed="max"/>
    <trip id="veh175" depart="443.35" from="1279835186" to="1355302937" departLane="best" type="veh_passenger" departSpeed="max"/>
    <trip id="veh176" depart="445.88" from="725363523#3" to="788485782#6" departLane="best" type="veh_passenger"/>
    <trip id="veh177" depart="448.42" from="214670700#2" to="124626689#1" departLane="best" type="veh_passenger"/>
    <trip id="veh178" depart="450.95" from="1279835186" to="317227550#1" departLane="best" type="veh_passenger" departSpeed="max"/>
    <trip id="veh179" depart="453.48" from="124861822#1" to="124861817#3" departLane="best" type="veh_passenger"/>
    <trip id="veh180" depart="456.02" from="214086020" to="788863317#4" departLane="best" type="veh_passenger" departSpeed="max"/>
    <trip id="veh181" depart="458.55" from="-665670052" to="-124861802#3" departLane="best" type="veh_passenger" departSpeed="max"/>
    <trip id="veh182" depart="461.08" from="214085929#1" to="317349751#3" departLane="best" type="veh_passenger"/>
    <trip id="veh183" depart="463.62" from="-214670700#2" to="665670054" departLane="best" type="veh_passenger"/>
    <trip id="veh184" depart="466.15" from="-214670699" to="391365884" departLane="best" type="veh_passenger" departSpeed="max"/>
    <trip id="veh185" depart="468.68" from="-1303633133" to="214085922#6" departLane="best" type="veh_passenger" departSpeed="max"/>
    <trip id="veh186" depart="471.22" from="214086022#2" to="-124861813#0" departLane="best" type="veh_passenger"/>
    <trip id="veh187" depart="473.75" from="-608078456" to="439133784#1" departLane="best" type="veh_passenger" departSpeed="max"/>
    <trip id="veh188" depart="476.28" from="780247592#0" to="1187806250" departLane="best" type="veh_passenger" departSpeed="max"/>
    <trip id="veh189" depart="478.82" from="-1126750036" to="1274591311#1" departLane="best" type="veh_passenger" departSpeed="max"/>
    <trip id="veh190" depart="481.35" from="1274598669#0" to="214085982#5" departLane="best" type="veh_passenger"/>
    <trip id="veh191" depart="483.88" from="317349751#4" to="-788863317#2" departLane="best" type="veh_passenger"/>
    <trip id="veh192" depart="486.42" from="1175243333" to="-214085964" departLane="best" type="veh_passenger" departSpeed="max"/>
    <trip id="veh193" depart="488.95" from="-214085954#4" to="1303633133" departLane="best" type="veh_passenger"/>
    <trip id="veh194" depart="491.48" from="-1133787479" to="-438964730" departLane="best" type="veh_passenger" departSpeed="max"/>
    <trip id="veh195" depart="494.02" from="-788479939" to="-124861796#0" departLane="best" type="veh_passenger" departSpeed="max"/>
    <trip id="veh196" depart="496.55" from="-788349071" to="-1120036792#1" departLane="best" type="veh_passenger" departSpeed="max"/>
    <trip id="veh197" depart="499.08" from="-124861817#5" to="-439133786" departLane="best" type="veh_passenger" departSpeed="max"/>
    <trip id="veh198" depart="501.62" from="-788863317#2" to="608078458" departLane="best" type="veh_passenger"/>
    <trip id="veh199" depart="504.15" from="-214085982#6" to="-1107662879" departLane="best" type="veh_passenger" departSpeed="max"/>
    <trip id="veh200" depart="506.68" from="-1120175997" to="1189818147" departLane="best" type="veh_passenger" departSpeed="max"/>
    <trip id="veh201" depart="509.22" from="102404324#0" to="317227550#1" departLane="best" type="veh_passenger"/>
    <trip id="veh202" depart="511.75" from="1190592106#0" to="124861817#2" departLane="best" type="veh_passenger" departSpeed="max"/>
    <trip id="veh203" depart="514.28" from="220589497#1" to="-1175829716" departLane="best" type="veh_passenger"/>
    <trip id="veh204" depart="516.82" from="-214086022#13" to="1303438828#1" departLane="best" type="veh_passenger"/>
    <trip id="veh205" depart="519.35" from="-1303633133" to="214085922#0" departLane="best" type="veh_passenger" departSpeed="max"/>
    <trip id="veh206" depart="521.88" from="-788391001" to="1235814456#1" departLane="best" type="veh_passenger" departSpeed="max"/>
    <trip id="veh207" depart="524.42" from="-788391001" to="-1303443733" departLane="best" type="veh_passenger" departSpeed="max"/>
    <trip id="veh208" depart="526.95" from="1340045787" to="124861817#5" departLane="best" type="veh_passenger"/>
    <trip id="veh209" depart="529.48" from="-665670054" to="1235814456#1" departLane="best" type="veh_passenger" departSpeed="max"/>
    <trip id="veh210" depart="532.02" from="-665946595#1" to="632266776#1" departLane="best" type="veh_passenger" departSpeed="max"/>
    <trip id="veh211" depart="534.55" from="-1303445747" to="-1176132762#2" departLane="best" type="veh_passenger" departSpeed="max"/>
    <trip id="veh212" depart="537.08" from="-665946595#1" to="1187806250" departLane="best" type="veh_passenger" departSpeed="max"/>
    <trip id="veh213" depart="539.62" from="124861812#0" to="-214085922#0" departLane="best" type="veh_passenger"/>
    <trip id="veh214" depart="542.15" from="1303442128#1" to="439133784#1" departLane="best" type="veh_passenger"/>
    <trip id="veh215" depart="544.69" from="214085922#6" to="1121687688" departLane="best" type="veh_passenger"/>
    <trip id="veh216" depart="547.22" from="1171539006" to="-1161004434#0" departLane="best" type="veh_passenger"/>
    <trip id="veh217" depart="549.75" from="634122566#1" to="1177177536#1" departLane="best" type="veh_passenger"/>
    <trip id="veh218" depart="552.29" from="1238879358#6" to="-124861802#4" departLane="best" type="veh_passenger"/>
    <trip id="veh219" depart="554.82" from="-1197065299" to="-991860327" departLane="best" type="veh_passenger" departSpeed="max"/>
    <trip id="veh220" depart="557.35" from="-1120175997" to="124861821#1" departLane="best" type="veh_passenger" departSpeed="max"/>
    <trip id="veh221" depart="559.89" from="124861802#4" to="-1340044355" departLane="best" type="veh_passenger"/>
    <trip id="veh222" depart="562.42" from="991860327" to="124861808#3" departLane="best" type="veh_passenger" departSpeed="max"/>
    <trip id="veh223" depart="564.95" from="1279835185" to="214085919#7" departLane="best" type="veh_passenger"/>
    <trip id="veh224" depart="567.49" from="-1126750036" to="665670054" departLane="best" type="veh_passenger" departSpeed="max"/>
    <trip id="veh225" depart="570.02" from="-214086022#12" to="608078456" departLane="best" type="veh_passenger"/>
    <trip id="veh226" depart="572.55" from="1303443733" to="-439133786" departLane="best" type="veh_passenger" departSpeed="max"/>
    <trip id="veh227" depart="575.09" from="214085922#6" to="-124861806#4" departLane="best" type="veh_passenger"/>
    <trip id="veh228" depart="577.62" from="439133786" to="124861806#4" departLane="best" type="veh_passenger" departSpeed="max"/>
    <trip id="veh229" depart="580.15" from="124861821#0" to="-665670045#0" departLane="best" type="veh_passenger"/>
    <trip id="veh230" depart="582.69" from="-1303445744" to="-1187808932" departLane="best" type="veh_passenger" departSpeed="max"/>
    <trip id="veh231" depart="585.22" from="1265177027#3" to="788349074#1" departLane="best" type="veh_passenger"/>