<?xml version="1.0" encoding="UTF-8"?>
<configuration xmlns:xsi="http://www.w3.org/2001/XMLSchema-instance"
    xsi:noNamespaceSchemaLocation="http://sumo.dlr.de/xsd/sumoConfiguration.xsd">
    <input>
        <net-file value="osm.net.xml.gz"/>
        <route-files value="osm.bus.trips.xml,osm.motorcycle.trips.xml,osm.passenger.trips.xml,osm.truck.trips.xml"/>
        <additional-files value="osm.poly.xml.gz,output.add.xml,rl_traffic_lights.add.xml"/>
    </input>
    <time>
        <begin value="0"/>
        <end value="10000"/>
        <step-length value="1.0"/>
    </time>
    <processing>
        <time-to-teleport value="300"/>
        <time-to-teleport.highways value="0"/>
        <max-depart-delay value="300"/>
        <eager-insert value="true"/>
        <extrapolate-departpos value="true"/>
        <ignore-route-errors value="true"/>
    </processing>
    <routing>
        <device.rerouting.adaptation-interval value="10"/>
        <device.rerouting.adaptation-steps value="180"/>
    </routing>
    <report>
        <verbose value="false"/>
        <no-step-log value="true"/>
    </report>
</configuration>
