<?xml version="1.0" encoding="UTF-8"?>

<!-- generated on 2025-11-02 03:38:56.154591 by osmWebWizard.py UNKNOWN
<configuration>
    <net-file value="/home/vishwajit/2025-11-02-03-38-48/osm.net.xml.gz"/>
    <output-trip-file value="/home/vishwajit/2025-11-02-03-38-48/osm.bus.trips.xml"/>
    <route-file value="/home/vishwajit/2025-11-02-03-38-48/osm.bus.rou.xml"/>
    <prefix value="bus"/>
    <trip-attributes value="departLane=&quot;best&quot;"/>
    <fringe-start-attributes value="departSpeed=&quot;max&quot;"/>
    <vehicle-class value="bus"/>
    <fringe-factor value="5"/>
    <edge-permission value="bus"/>
    <via-edge-types value="highway.motorway,highway.motorway_link,highway.trunk_link,highway.primary_link,highway.secondary_link,highway.tertiary_link"/>
    <min-distance value="600.0"/>
    <min-distance.fringe value="10.0"/>
    <remove-loops value="True"/>
    <insertion-density value="8.0"/>
</configuration>
-->

<routes xmlns:xsi="http://www.w3.org/2001/XMLSchema-instance" xsi:noNamespaceSchemaLocation="http://sumo.dlr.de/xsd/routes_file.xsd">
    <vType id="bus_bus" vClass="bus"/>
    <trip id="bus0" depart="0.00" from="-1303633133" to="-214086022#12" departLane="best" type="bus_bus" departSpeed="max"/>
    <trip id="bus1" depart="6.26" from="438964734" to="-124858284#2" departLane="best" type="bus_bus" departSpeed="max"/>
    <trip id="bus2" depart="12.52" from="-124861817#2" to="1190750307" departLane="best" type="bus_bus"/>
    <trip id="bus3" depart="18.78" from="-124861817#5" to="124861798#2" departLane="best" type="bus_bus" departSpeed="max"/>
    <trip id="bus4" depart="25.04" from="214086020" to="-1120035416#0" departLane="best" type="bus_bus" departSpeed="max"/>
    <trip id="bus5" depart="31.30" from="214085994#0" to="1303633133" departLane="best" type="bus_bus"/>
    <trip id="bus6" depart="37.56" from="1120035412#0" to="788391001" departLane="best" type="bus_bus"/>
    <trip id="bus7" depart="43.81" from="22842320#7" to="124858284#3" departLane="best" type="bus_bus"/>
    <trip id="bus8" depart="50.07" from="124861823#2" to="-1190592106#0" departLane="best" type="bus_bus"/>
    <trip id="bus9" depart="56.33" from="-124861823#0" to="-438964730" departLane="best" type="bus_bus"/>
    <trip id="bus10" depart="62.59" from="-1189817147#2" to="-317349751#4" departLane="best" type="bus_bus"/>
    <trip id="bus11" depart="68.85" from="-124858284#0" to="214085919#3" departLane="best" type="bus_bus"/>
    <trip id="bus12" depart="75.11" from="-124861823#1" to="-1176132762#5" departLane="best" type="bus_bus"/>
    <trip id="bus13" depart="81.37" from="-214085972" to="-22842320#7" departLane="best" type="bus_bus"/>
    <trip id="bus14" depart="87.63" from="-124861813#5" to="725293625#7" departLane="best" type="bus_bus"/>
    <trip id="bus15" depart="93.89" from="124861796#5" to="1120052249#0" departLane="best" type="bus_bus"/>
    <trip id="bus16" depart="100.15" from="632157133#3" to="1177177068#1" departLane="best" type="bus_bus"/>
    <trip id="bus17" depart="106.41" from="-1303445747" to="-214670747" departLane="best" type="bus_bus" departSpeed="max"/>
    <trip id="bus18" depart="112.67" from="1177178389#1" to="634122566#2" departLane="best" type="bus_bus"/>
    <trip id="bus19" depart="118.93" from="-317349751#3" to="-214086021#2" departLane="best" type="bus_bus"/>
    <trip id="bus20" depart="125.19" from="-1187806250" to="-1190592106#0" departLane="best" type="bus_bus" departSpeed="max"/>
    <trip id="bus21" depart="131.44" from="-1190592107" to="124861817#5" departLane="best" type="bus_bus"/>
    <trip id="bus22" depart="137.70" from="124861813#3" to="1243425888" departLane="best" type="bus_bus"/>
    <trip id="bus23" depart="143.96" from="-1303445748" to="124861823#3" departLane="best" type="bus_bus" departSpeed="max"/>
    <trip id="bus24" depart="150.22" from="-665670045#1" to="725363527#1" departLane="best" type="bus_bus"/>
    <trip id="bus25" depart="156.48" from="-788390993" to="-214085900#0" departLane="best" type="bus_bus" departSpeed="max"/>
    <trip id="bus26" depart="162.74" from="1192349245" to="-124861825#7" departLane="best" type="bus_bus"/>
    <trip id="bus27" depart="169.00" from="438964730" to="317349751#6" departLane="best" type="bus_bus" departSpeed="max"/>
    <trip id="bus28" depart="175.26" from="-214085922#6" to="-1197065297#1" departLane="best" type="bus_bus"/>
    <trip id="bus29" depart="181.52" from="438964728" to="725363523#1" departLane="best" type="bus_bus"/>
    <trip id="bus30" depart="187.78" from="-1176132762#5" to="214086022#14" departLane="best" type="bus_bus"/>
    <trip id="bus31" depart="194.04" from="1340045737#1" to="-124861815" departLane="best" type="bus_bus"/>
    <trip id="bus32" depart="200.30" from="1120035414" to="214085919#4" departLane="best" type="bus_bus"/>
    <trip id="bus33" depart="206.56" from="-1192260787" to="-214086022#14" departLane="best" type="bus_bus" departSpeed="max"/>
    <trip id="bus34" depart="212.81" from="-124861823#3" to="-214086021#3" departLane="best" type="bus_bus"/>
    <trip id="bus35" depart="219.07" from="-1176132762#6" to="124861818#1" departLane="best" type="bus_bus" departSpeed="max"/>
    <trip id="bus36" depart="225.33" from="-124861825#1" to="1274598669#1" departLane="best" type="bus_bus"/>
    <trip id="bus37" depart="231.59" from="665670045#0" to="124858280#0" departLane="best" type="bus_bus" departSpeed="max"/>
    <trip id="bus38" depart="237.85" from="214086020" to="-214085922#3" departLane="best" type="bus_bus" departSpeed="max"/>
    <trip id="bus39" depart="244.11" from="788485782#2" to="-124861798#0" departLane="best" type="bus_bus"/>
    <trip id="bus40" depart="250.37" from="22842320#7" to="-214670747" departLane="best" type="bus_bus"/>
    <trip id="bus41" depart="256.63" from="991860327" to="320394882" departLane="best" type="bus_bus" departSpeed="max"/>
    <trip id="bus42" depart="262.89" from="-788349070" to="-214086020" departLane="best" type="bus_bus" departSpeed="max"/>
    <trip id="bus43" depart="269.15" from="-317349751#5" to="-1235814450" departLane="best" type="bus_bus"/>
    <trip id="bus44" depart="275.41" from="668807687#0" to="939273494#2" departLane="best" type="bus_bus"/>
    <trip id="bus45" depart="281.67" from="1121871259" to="214085900#1" departLane="best" type="bus_bus"/>
    <trip id="bus46" depart="287.93" from="725363524#1" to="124858284#7" departLane="best" type="bus_bus"/>
    <trip id="bus47" depart="294.19" from="1120036792#1" to="214085982#5" departLane="best" type="bus_bus"/>
    <trip id="bus48" depart="300.44" from="1187808932" to="1293647948" departLane="best" type="bus_bus" departSpeed="max"/>
    <trip id="bus49" depart="306.70" from="1187808932" to="124861814#2" departLane="best" type="bus_bus" departSpeed="max"/>
    <trip id="bus50" depart="312.96" from="-438964735#1" to="124861796#1" departLane="best" type="bus_bus"/>
    <trip id="bus51" depart="319.22" from="-124861809#1" to="214085900#1" departLane="best" type="bus_bus"/>
    <trip id="bus52" depart="325.48" from="-124861825#10" to="1120052249#0" departLane="best" type="bus_bus"/>
    <trip id="bus53" depart="331.74" from="124861806#5" to="-438964734" departLane="best" type="bus_bus"/>
    <trip id="bus54" depart="338.00" from="-1176132762#6" to="1177177068#1" departLane="best" type="bus_bus" departSpeed="max"/>
    <trip id="bus55" depart="344.26" from="-1177177068#0" to="-214085994#1" departLane="best" type="bus_bus"/>
    <trip id="bus56" depart="350.52" from="438964730" to="608078458" departLane="best" type="bus_bus" departSpeed="max"/>
    <trip id="bus57" depart="356.78" from="124861796#3" to="-1120036792#1" departLane="best" type="bus_bus"/>
    <trip id="bus58" depart="363.04" from="124861802#6" to="725293625#0" departLane="best" type="bus_bus"/>
    <trip id="bus59" depart="369.30" from="124861825#7" to="-214085964" departLane="best" type="bus_bus"/>
    <trip id="bus60" depart="375.56" from="-788349071" to="665670052" departLane="best" type="bus_bus" departSpeed="max"/>
    <trip id="bus61" depart="381.81" from="-439133784#1" to="-1120175987" departLane="best" type="bus_bus" departSpeed="max"/>
    <trip id="bus62" depart="388.07" from="-1177177068#1" to="632157133#1" departLane="best" type="bus_bus" departSpeed="max"/>
    <trip id="bus63" depart="394.33" from="-1265177027#3" to="-124861802#2" departLane="best" type="bus_bus"/>
    <trip id="bus64" depart="400.59" from="214085919#5" to="632157133#3" departLane="best" type="bus_bus"/>
    <trip id="bus65" depart="406.85" from="317227550#0" to="788391001" departLane="best" type="bus_bus"/>
    <trip id="bus66" depart="413.11" from="214086021#0" to="608078458" departLane="best" type="bus_bus"/>
    <trip id="bus67" depart="419.37" from="-1120175972" to="214085922#6" departLane="best" type="bus_bus" departSpeed="max"/>
    <trip id="bus68" depart="425.63" from="-124861817#5" to="22842320#3" departLane="best" type="bus_bus" departSpeed="max"/>
    <trip id="bus69" depart="431.89" from="-1120036792#2" to="-214085922#6" departLane="best" type="bus_bus"/>
    <trip id="bus70" depart="438.15" from="665946595#0" to="-124861808#0" departLane="best" type="bus_bus"/>
    <trip id="bus71" depart="444.41" from="725363526#0" to="-214085900#0" departLane="best" type="bus_bus"/>
    <trip id="bus72" depart="450.67" from="725293625#8" to="-22842320#4" departLane="best" type="bus_bus"/>
    <trip id="bus73" depart="456.93" from="-22842320#0" to="124858284#2" departLane="best" type="bus_bus"/>
    <trip id="bus74" depart="463.19" from="1120035413" to="214085901#0" departLane="best" type="bus_bus"/>
    <trip id="bus75" depart="469.44" from="1279835183" to="1274598670#1" departLane="best" type="bus_bus"/>
    <trip id="bus76" depart="475.70" from="124861802#8" to="-665946595#0" departLane="best" type="bus_bus"/>
    <trip id="bus77" depart="481.96" from="-317349751#6" to="-438964731" departLane="best" type="bus_bus" departSpeed="max"/>
    <trip id="bus78" depart="488.22" from="665946596#1" to="1303438828#1" departLane="best" type="bus_bus"/>
    <trip id="bus79" depart="494.48" from="-608078456" to="-214086020" departLane="best" type="bus_bus" departSpeed="max"/>
    <trip id="bus80" depart="500.74" from="214085964" to="-1303443733" departLane="best" type="bus_bus" departSpeed="max"/>
    <trip id="bus81" depart="507.00" from="214086022#2" to="214085982#6" departLane="best" type="bus_bus"/>
    <trip id="bus82" depart="513.26" from="124861808#0" to="-214086022#14" departLane="best" type="bus_bus"/>
    <trip id="bus83" depart="519.52" from="-124861803#2" to="1303445748" departLane="best" type="bus_bus"/>
    <trip id="bus84" depart="525.78" from="-788349074#1" to="-214670745#0" departLane="best" type="bus_bus" departSpeed="max"/>
    <trip id="bus85" depart="532.04" from="124861798#0" to="-1120031777#4" departLane="best" type="bus_bus"/>
    <trip id="bus86" depart="538.30" from="-1189818147" to="1126750042" departLane="best" type="bus_bus" departSpeed="max"/>
    <trip id="bus87" depart="544.56" from="-124858284#7" to="788349070" departLane="best" type="bus_bus"/>
    <trip id="bus88" depart="550.81" from="-788863317#3" to="-1190740936" departLane="best" type="bus_bus"/>
    <trip id="bus89" depart="557.07" from="-1265177027#2" to="438964735#0" departLane="best" type="bus_bus"/>
    <trip id="bus90" depart="563.33" from="1187808932" to="725363524#1" departLane="best" type="bus_bus" departSpeed="max"/>
    <trip id="bus91" depart="569.59" from="214097335#3" to="124611611#4" departLane="best" type="bus_bus"/>
    <trip id="bus92" depart="575.85" from="439133786" to="214085956" departLane="best" type="bus_bus" departSpeed="max"/>
    <trip id="bus93" depart="582.11" from="-1265177027#0" to="124861822#2" departLane="best" type="bus_bus"/>
    <trip id="bus94" depart="588.37" from="-1303468358" to="-632157133#3" departLane="best" type="bus_bus" departSpeed="max"/>
    <trip id="bus95" depart="594.63" from="-124861823#4" to="1303445748" departLane="best" type="bus_bus"/>
    <trip id="bus96" depart="600.89" from="1177178389#0" to="1303445748" departLane="best" type="bus_bus"/>
    <trip id="bus97" depart="607.15" from="22842320#0" to="214086022#9" departLane="best" type="bus_bus"/>
    <trip id="bus98" depart="613.41" from="-438964735#1" to="214085982#4" departLane="best" type="bus_bus"/>
    <trip id="bus99" depart="619.67" from="1120175986" to="124861806#5" departLane="best" type="bus_bus"/>
    <trip id="bus100" depart="625.93" from="-124861817#5" to="-214086021#2" departLane="best" type="bus_bus" departSpeed="max"/>
    <trip id="bus101" depart="632.19" from="-317349751#6" to="-1303442128#0" departLane="best" type="bus_bus" departSpeed="max"/>
    <trip id="bus102" depart="638.44" from="-317227550#1" to="124626678#2" departLane="best" type="bus_bus" departSpeed="max"/>
    <trip id="bus103" depart="644.70" from="-1120175972" to="124861823#6" departLane="best" type="bus_bus" departSpeed="max"/>
    <trip id="bus104" depart="650.96" from="-1197065299" to="1177177536#0" departLane="best" type="bus_bus" departSpeed="max"/>
    <trip id="bus105" depart="657.22" from="1303442127#0" to="317349751#6" departLane="best" type="bus_bus"/>
    <trip id="bus106" depart="663.48" from="-1303442127#1" to="-124858280#0" departLane="best" type="bus_bus" departSpeed="max"/>
    <trip id="bus107" depart="669.74" from="991860327" to="-788485782#6" departLane="best" type="bus_bus" departSpeed="max"/>
    <trip id="bus108" depart="676.00" from="124861796#0" to="214086021#0" departLane="best" type="bus_bus"/>
    <trip id="bus109" depart="682.26" from="-1120031777#4" to="-124861825#6" departLane="best" type="bus_bus"/>
    <trip id="bus110" depart="688.52" from="-1192343719" to="1274598669#1" departLane="best" type="bus_bus" departSpeed="max"/>
    <trip id="bus111" depart="694.78" from="1303438828#0" to="-124861806#5" departLane="best" type="bus_bus" departSpeed="max"/>
    <trip id="bus112" depart="701.04" from="214086022#3" to="788349074#0" departLane="best" type="bus_bus"/>
    <trip id="bus113" depart="707.30" from="725293625#0" to="1120052249#1" departLane="best" type="bus_bus"/>
    <trip id="bus114" depart="713.56" from="124861816#2" to="124861817#5" departLane="best" type="bus_bus"/>
    <trip id="bus115" depart="719.81" from="-1192260787" to="788485782#2" departLane="best" type="bus_bus" departSpeed="max"/>
    <trip id="bus116" depart="726.07" from="-788479939" to="-725363522#1" departLane="best" type="bus_bus" departSpeed="max"/>
    <trip id="bus117" depart="732.33" from="-1189818147" to="788349071" departLane="best" type="bus_bus" departSpeed="max"/>
    <trip id="bus118" depart="738.59" from="124626678#0" to="317349751#2" departLane="best" type="bus_bus"/>
    <trip id="bus119" depart="744.85" from="1274591321" to="788349074#1" departLane="best" type="bus_bus" departSpeed="max"/>
    <trip id="bus120" depart="751.11" from="438964730" to="-214670745#0" departLane="best" type="bus_bus" departSpeed="max"/>
    <trip id="bus121" depart="757.37" from="-665946595#1" to="124861812#2" departLane="best" type="bus_bus" departSpeed="max"/>
    <trip id="bus122" depart="763.63" from="124861822#0" to="-317349751#1" departLane="best" type="bus_bus"/>
    <trip id="bus123" depart="769.89" from="-788349071" to="214086022#11" departLane="best" type="bus_bus" departSpeed="max"/>
    <trip id="bus124" depart="776.15" from="124861816#2" to="124861824#2" departLane="best" type="bus_bus"/>
    <trip id="bus125" depart="782.41" from="-788349071" to="214670718" departLane="best" type="bus_bus" departSpeed="max"/>
    <trip id="bus126" depart="788.67" from="1176132762#5" to="1179972278#5" departLane="best" type="bus_bus"/>
    <trip id="bus127" depart="794.93" from="1279835186" to="-665946596#0" departLane="best" type="bus_bus" departSpeed="max"/>
    <trip id="bus128" depart="801.19" from="124861822#2" to="-315474037" departLane="best" type="bus_bus"/>
    <trip id="bus129" depart="807.44" from="-1303438828#0" to="-124861812#2" departLane="best" type="bus_bus"/>
    <trip id="bus130" depart="813.70" from="-124861802#9" to="-124861812#0" departLane="best" type="bus_bus"/>
    <trip id="bus131" depart="819.96" from="-788349070" to="214085908#1" departLane="best" type="bus_bus" departSpeed="max"/>
    <trip id="bus132" depart="826.22" from="-124861803#2" to="-214086022#5" departLane="best" type="bus_bus"/>
    <trip id="bus133" depart="832.48" from="-124861796#0" to="-1161004434#0" departLane="best" type="bus_bus"/>
    <trip id="bus134" depart="838.74" from="124861819#1" to="-124861813#6" departLane="best" type="bus_bus"/>
    <trip id="bus135" depart="845.00" from="317349751#4" to="1189817147#2" departLane="best" type="bus_bus"/>
    <trip id="bus136" depart="851.26" from="665946596#2" to="1187806249" departLane="best" type="bus_bus"/>
    <trip id="bus137" depart="857.52" from="214086022#7" to="1120175997" departLane="best" type="bus_bus"/>
    <trip id="bus138" depart="863.78" from="-1177177068#1" to="124861817#5" departLane="best" type="bus_bus" departSpeed="max"/>
    <trip id="bus139" depart="870.04" from="1161004434#1" to="-438964735#0" departLane="best" type="bus_bus"/>
    <trip id="bus140" depart="876.30" from="1274598670#3" to="725363523#2" departLane="best" type="bus_bus"/>
    <trip id="bus141" depart="882.56" from="-124861813#1" to="-214085982#4" departLane="best" type="bus_bus"/>
    <trip id="bus142" depart="888.81" from="124861823#0" to="1176132762#6" departLane="best" type="bus_bus"/>
    <trip id="bus143" depart="895.07" from="214085929#2" to="124861817#3" departLane="best" type="bus_bus"/>
    <trip id="bus144" depart="901.33" from="-124626678#3" to="-439133786" departLane="best" type="bus_bus"/>
    <trip id="bus145" depart="907.59" from="1303438828#0" to="124626689#1" departLane="best" type="bus_bus" departSpeed="max"/>
    <trip id="bus146" depart="913.85" from="665946597#1" to="1190739960" departLane="best" type="bus_bus"/>
    <trip id="bus147" depart="920.11" from="-788349074#1" to="-124626678#3" departLane="best" type="bus_bus" departSpeed="max"/>
    <trip id="bus148" depart="926.37" from="-1187806250" to="788349071" departLane="best" type="bus_bus" departSpeed="max"/>
    <trip id="bus149" depart="932.63" from="214670700#2" to="124858284#0" departLane="best" type="bus_bus"/>
    <trip id="bus150" depart="938.89" from="666847768#0" to="992614157" departLane="best" type="bus_bus" departSpeed="max"/>
    <trip id="bus151" depart="945.15" from="-1126750036" to="214086021#3" departLane="best" type="bus_bus" departSpeed="max"/>
    <trip id="bus152" depart="951.41" from="632266774#0" to="-214085908#0" departLane="best" type="bus_bus"/>
    <trip id="bus153" depart="957.67" from="1177178389#2" to="124861821#2" departLane="best" type="bus_bus"/>
    <trip id="bus154" depart="963.93" from="-788349072" to="-124858284#9" departLane="best" type="bus_bus"/>
    <trip id="bus155" depart="970.19" from="-214086022#11" to="1303445748" departLane="best" type="bus_bus"/>
    <trip id="bus156" depart="976.44" from="-214085900#1" to="725363522#0" departLane="best" type="bus_bus" departSpeed="max"/>
    <trip id="bus157" depart="982.70" from="-214085994#0" to="788390993" departLane="best" type="bus_bus"/>
    <trip id="bus158" depart="988.96" from="-317349751#6" to="1192343719" departLane="best" type="bus_bus" departSpeed="max"/>
    <trip id="bus159" depart="995.22" from="1120036792#2" to="1126532282" departLane="best" type="bus_bus"/>
    <trip id="bus160" depart="1001.48" from="1303442128#1" to="124861817#3" departLane="best" type="bus_bus"/>
    <trip id="bus161" depart="1007.74" from="1303443733" to="-214085964" departLane="best" type="bus_bus" departSpeed="max"/>
    <trip id="bus162" depart="1014.00" from="-1192260787" to="788391001" departLane="best" type="bus_bus" departSpeed="max"/>
    <trip id="bus163" depart="1020.26" from="788863317#3" to="665946595#0" departLane="best" type="bus_bus"/>
    <trip id="bus164" depart="1026.52" from="124861825#6" to="1192258751#1" departLane="best" type="bus_bus"/>
    <trip id="bus165" depart="1032.78" from="-1303468358" to="317349751#6" departLane="best" type="bus_bus" departSpeed="max"/>
    <trip id="bus166" depart="1039.04" from="788349080" to="-214670745#0" departLane="best" type="bus_bus"/>
    <trip id="bus167" depart="1045.30" from="632266777#0" to="1192258751#0" departLane="best" type="bus_bus"/>
    <trip id="bus168" depart="1051.56" from="-1303633133" to="214670700#1" departLane="best" type="bus_bus" departSpeed="max"/>
    <trip id="bus169" depart="1057.81" from="-438962717#1" to="668807687#0" departLane="best" type="bus_bus" departSpeed="max"/>
    <trip id="bus170" depart="1064.07" from="-1355302937" to="-438964732" departLane="best" type="bus_bus" departSpeed="max"/>
    <trip id="bus171" depart="1070.33" from="-788349071" to="-124861825#1" departLane="best" type="bus_bus" departSpeed="max"/>
    <trip id="bus172" depart="1076.59" from="1120035413" to="-788349080" departLane="best" type="bus_bus"/>
    <trip id="bus173" depart="1082.85" from="214086021#1" to="1120031777#2" departLane="best" type="bus_bus"/>
    <trip id="bus174" depart="1089.11" from="124861802#7" to="22842320#8" departLane="best" type="bus_bus"/>
    <trip id="bus175" depart="1095.37" from="-1126532282" to="1190739960" departLane="best" type="bus_bus" departSpeed="max"/>
    <trip id="bus176" depart="1101.63" from="1265177027#1" to="1121871257#1" departLane="best" type="bus_bus"/>
    <trip id="bus177" depart="1107.89" from="124861825#9" to="214086022#12" departLane="best" type="bus_bus"/>
    <trip id="bus178" depart="1114.15" from="-1176132762#4" to="124861818#1" departLane="best" type="bus_bus"/>
    <trip id="bus179" depart="1120.41" from="-1189813847" to="124861821#1" departLane="best" type="bus_bus" departSpeed="max"/>
    <trip id="bus180" depart="1126.67" from="-1126750042" to="214670745#0" departLane="best" type="bus_bus"/>
    <trip id="bus181" depart="1132.93" from="1171540749" to="214670718" departLane="best" type="bus_bus"/>
    <trip id="bus182" depart="1139.19" from="320394882" to="124861815" departLane="best" type="bus_bus"/>
    <trip id="bus183" depart="1145.44" from="-124861825#5" to="665946595#0" departLane="best" type="bus_bus"/>
    <trip id="bus184" depart="1151.70" from="124626689#0" to="1126750041#1" departLane="best" type="bus_bus"/>
    <trip id="bus185" depart="1157.96" from="1175243333" to="124858284#0" departLane="best" type="bus_bus" departSpeed="max"/>
    <trip id="bus186" depart="1164.22" from="780247594" to="1265177027#1" departLane="best" type="bus_bus"/>
    <trip id="bus187" depart="1170.48" from="-1303633133" to="124626678#4" departLane="best" type="bus_bus" departSpeed="max"/>
    <trip id="bus188" depart="1176.74" from="124861813#8" to="214085982#0" departLane="best" type="bus_bus"/>
    <trip id="bus189" depart="1183.00" from="-1133787479" to="124861808#3" departLane="best" type="bus_bus" departSpeed="max"/>
    <trip id="bus190" depart="1189.26" from="-788349080" to="665670052" departLane="best" type="bus_bus"/>
    <trip id="bus191" depart="1195.52" from="124626678#2" to="124861816#0" departLane="best" type="bus_bus"/>
    <trip id="bus192" depart="1201.78" from="124861812#1" to="214085902" departLane="best" type="bus_bus"/>
    <trip id="bus193" depart="1208.04" from="124861802#0" to="391365884" departLane="best" type="bus_bus"/>
    <trip id="bus194" depart="1214.30" from="124858284#4" to="-439133786" departLane="best" type="bus_bus"/>
    <trip id="bus195" depart="1220.56" from="-608078456" to="124858284#7" departLane="best" type="bus_bus" departSpeed="max"/>
    <trip id="bus196" depart="1226.82" from="1274591321" to="-124858284#7" departLane="best" type="bus_bus" departSpeed="max"/>
    <trip id="bus197" depart="1233.07" from="-214085908#1" to="214085982#4" departLane="best" type="bus_bus" departSpeed="max"/>
    <trip id="bus198" depart="1239.33" from="1120035414" to="788390993" departLane="best" type="bus_bus"/>
    <trip id="bus199" depart="1245.59" from="214085994#1" to="214085982#3" departLane="best" type="bus_bus"/>
    <trip id="bus200" depart="1251.85" from="1265177027#3" to="788479939" departLane="best" type="bus_bus"/>
    <trip id="bus201" depart="1258.11" from="-665670052" to="1274644228" departLane="best" type="bus_bus" departSpeed="max"/>
    <trip id="bus202" depart="1264.37" from="214086022#9" to="725293625#2" departLane="best" type="bus_bus"/>
    <trip id="bus203" depart="1270.63" from="1161004434#0" to="665946595#1" departLane="best" type="bus_bus" departSpeed="max"/>
    <trip id="bus204" depart="1276.89" from="-124861817#5" to="-1238879358#6" departLane="best" type="bus_bus" departSpeed="max"/>
    <trip id="bus205" depart="1283.15" from="-1238879358#3" to="725363523#0" departLane="best" type="bus_bus"/>
    <trip id="bus206" depart="1289.41" from="-1189813847" to="632266776#0" departLane="best" type="bus_bus" departSpeed="max"/>
    <trip id="bus207" depart="1295.67" from="-1197065299" to="1176132762#6" departLane="best" type="bus_bus" departSpeed="max"/>
    <trip id="bus208" depart="1301.93" from="124861806#3" to="214085956" departLane="best" type="bus_bus"/>
    <trip id="bus209" depart="1308.19" from="1279835183" to="-124861825#9" departLane="best" type="bus_bus"/>
    <trip id="bus210" depart="1314.44" from="-214670699" to="1120175986" departLane="best" type="bus_bus" departSpeed="max"/>
    <trip id="bus211" depart="1320.70" from="124861802#6" to="124861823#4" departLane="best" type="bus_bus"/>
    <trip id="bus212" depart="1326.96" from="1189817147#2" to="-1175243333" departLane="best" type="bus_bus"/>
    <trip id="bus213" depart="1333.22" from="214085929#1" to="-214670745#0" departLane="best" type="bus_bus"/>
    <trip id="bus214" depart="1339.48" from="-1176132762#4" to="214086022#7" departLane="best" type="bus_bus"/>
    <trip id="bus215" depart="1345.74" from="-124861813#0" to="-214086020" departLane="best" type="bus_bus"/>
    <trip id="bus216" depart="1352.00" from="-1243425888" to="-124861816#1" departLane="best" type="bus_bus" departSpeed="max"/>
    <trip id="bus217" depart="1358.26" from="-1279835186" to="-1303638842" departLane="best" type="bus_bus"/>
    <trip id="bus218" depart="1364.52" from="-124858284#4" to="-1192258751#1" departLane="best" type="bus_bus"/>
    <trip id="bus219" depart="1370.78" from="725363522#0" to="-1238879358#2" departLane="best" type="bus_bus"/>
    <trip id="bus220" depart="1377.04" from="-1177177536#1" to="124861812#0" departLane="best" type="bus_bus" departSpeed="max"/>
    <trip id="bus221" depart="1383.30" from="-1176132762#1" to="-317349751#0" departLane="best" type="bus_bus"/>
    <trip id="bus222" depart="1389.56" from="1265177026#2" to="-214086020" departLane="best" type="bus_bus"/>
    <trip id="bus223" depart="1395.82" from="-665546552" to="-214086022#7" departLane="best" type="bus_bus" departSpeed="max"/>
    <trip id="bus224" depart="1402.07" from="-439133784#1" to="1274591320#0" departLane="best" type="bus_bus" departSpeed="max"/>
    <trip id="bus225" depart="1408.33" from="-1189813847" to="214085949" departLane="best" type="bus_bus" departSpeed="max"/>
    <trip id="bus226" depart="1414.59" from="-214086022#11" to="-124861813#1" departLane="best" type="bus_bus"/>
    <trip id="bus227" depart="1420.85" from="1265177026#3" to="788349074#1" departLane="best" type="bus_bus"/>
    <trip id="bus228" depart="1427.11" from="1189817671#2" to="-788485782#8" departLane="best" type="bus_bus"/>
    <trip id="bus229" depart="1433.37" from="1176132762#0" to="-214085994#1" departLane="best" type="bus_bus"/>
    <trip id="bus230" depart="1439.63" from="124861798#1" to="-214086022#14" departLane="best" type="bus_bus"/>
    <trip id="bus231" depart="1445.89" from="-214670750" to="214086022#4" departLane="best" type="bus_bus"/>
    <trip id="bus232" depart="1452.15" from="1175829716" to="220589497#2" departLane="best" type="bus_bus" departSpeed="max"/>
    <trip id="bus233" depart="1458.41" from="214086022#2" to="124861813#4" departLane="best" type="bus_bus"/>
    <trip id="bus234" depart="1464.67" from="634122566#1" to="317349751#3" departLane="best" type="bus_bus"/>
    <trip id="bus235" depart="1470.93" from="124861822#2" to="-439133786" departLane="best" type="bus_bus"/>
    <trip id="bus236" depart="1477.19" from="1279835186" to="-214086020" departLane="best" type="bus_bus" departSpeed="max"/>
    <trip id="bus237" depart="1483.44" from="214085913#1" to="124626689#1" departLane="best" type="bus_bus"/>
    <trip id="bus238" depart="1489.70" from="124861812#2" to="1189813847" departLane="best" type="bus_bus"/>
    <trip id="bus239" depart="1495.96" from="124861803#2" to="-1190592106#0" departLane="best" type="bus_bus"/>
    <trip id="bus240" depart="1502.22" from="-317227550#1" to="124861806#0" departLane="best" type="bus_bus" departSpeed="max"/>
    <trip id="bus241" depart="1508.48" from="-124861813#6" to="-124861822#1" departLane="best" type="bus_bus"/>
    <trip id="bus242" depart="1514.74" from="124861823#0" to="1190739960" departLane="best" type="bus_bus"/>
    <trip id="bus243" depart="1521.00" from="-1126750041#1" to="-1175243333" departLane="best" type="bus_bus" departSpeed="max"/>
    <trip id="bus244" depart="1527.26" from="632266775" to="-124858284#3" departLane="best" type="bus_bus" departSpeed="max"/>
    <trip id="bus245" depart="1533.52" from="1179972278#2" to="1235814456#0" departLane="best" type="bus_bus"/>
    <trip id="bus246" depart="1539.78" from="-124858280#1" to="1192260787" departLane="best" type="bus_bus"/>
    <trip id="bus247" depart="1546.04" from="-1190740936" to="1192258751#2" departLane="best" type="bus_bus"/>
    <trip id="bus248" depart="1552.30" from="1274591311#1" to="22842320#6" departLane="best" type="bus_bus"/>