<?xml version="1.0" encoding="UTF-8"?>

<!-- generated on 2025-09-21 13:27:01.547840 by osmWebWizard.py UNKNOWN
<configuration>
    <net-file value="/home/vishwajit/Workspace/SIH2025/FDRL/sumo_files/2025-09-21-13-26-55/osm.net.xml.gz"/>
    <output-trip-file value="/home/vishwajit/Workspace/SIH2025/FDRL/sumo_files/2025-09-21-13-26-55/osm.passenger.trips.xml"/>
    <route-file value="/home/vishwajit/Workspace/SIH2025/FDRL/sumo_files/2025-09-21-13-26-55/osm.passenger.rou.xml"/>
    <prefix value="veh"/>
    <trip-attributes value="departLane=&quot;best&quot;"/>
    <fringe-start-attributes value="departSpeed=&quot;max&quot;"/>
    <vehicle-class value="passenger"/>
    <lanes value="True"/>
    <fringe-factor value="5"/>
    <allow-fringe.min-length value="1000.0"/>
    <edge-permission value="passenger"/>
    <via-edge-types value="highway.motorway,highway.motorway_link,highway.trunk_link,highway.primary_link,highway.secondary_link,highway.tertiary_link"/>
    <seed value="44"/>
    <min-distance value="300.0"/>
    <min-distance.fringe value="10.0"/>
    <remove-loops value="True"/>
    <insertion-density value="40.0"/>
</configuration>
-->

<routes xmlns:xsi="http://www.w3.org/2001/XMLSchema-instance" xsi:noNamespaceSchemaLocation="http://sumo.dlr.de/xsd/routes_file.xsd">
    <vType id="veh_passenger" vClass="passenger"/>
    <trip id="veh0" depart="0.00" from="-124861823#1" to="-1238879358#4" departLane="best" type="veh_passenger"/>
    <trip id="veh1" depart="3.71" from="-1238879358#4" to="-1126750042" departLane="best" type="veh_passenger"/>
    <trip id="veh2" depart="7.41" from="124861814" to="-725293625#0" departLane="best" type="veh_passenger" departSpeed="max"/>
    <trip id="veh3" depart="11.12" from="725363522#0" to="-124861812#1" departLane="best" type="veh_passenger"/>
    <trip id="veh4" depart="14.82" from="124858284#2" to="725363523#3" departLane="best" type="veh_passenger"/>
    <trip id="veh5" depart="18.53" from="-1126750041#1" to="1121687687" departLane="best" type="veh_passenger" departSpeed="max"/>
    <trip id="veh6" depart="22.24" from="124861812#0" to="22842320#1" departLane="best" type="veh_passenger" departSpeed="max"/>
    <trip id="veh7" depart="25.94" from="124861821#2" to="214085908#1" departLane="best" type="veh_passenger"/>
    <trip id="veh8" depart="29.65" from="124861803#0" to="-725363522#0" departLane="best" type="veh_passenger" departSpeed="max"/>
    <trip id="veh9" depart="33.36" from="214085922#5" to="124861821#2" departLane="best" type="veh_passenger"/>
    <trip id="veh10" depart="37.06" from="1303443733" to="124861825#9" departLane="best" type="veh_passenger" departSpeed="max"/>
    <trip id="veh11" depart="40.77" from="-214085922#5" to="317349751#1" departLane="best" type="veh_passenger"/>
    <trip id="veh12" depart="44.47" from="-214085922#3" to="317349751#6" departLane="best" type="veh_passenger"/>
    <trip id="veh13" depart="48.18" from="-124861796#0" to="124861823#3" departLane="best" type="veh_passenger"/>
    <trip id="veh14" depart="51.89" from="214085949" to="124861817#5" departLane="best" type="veh_passenger"/>
    <trip id="veh15" depart="55.59" from="-1303633133" to="124861823#4" departLane="best" type="veh_passenger" departSpeed="max"/>
    <trip id="veh16" depart="59.30" from="124858284#2" to="-1303443733" departLane="best" type="veh_passenger"/>
    <trip id="veh17" depart="63.01" from="214085972" to="317349751#5" departLane="best" type="veh_passenger"/>
    <trip id="veh18" depart="66.71" from="-1265177027#2" to="725363522#1" departLane="best" type="veh_passenger"/>
    <trip id="veh19" depart="70.42" from="-124861825#6" to="-124858284#7" departLane="best" type="veh_passenger"/>
    <trip id="veh20" depart="74.12" from="-725293625#1" to="439133784#1" departLane="best" type="veh_passenger" departSpeed="max"/>
    <trip id="veh21" depart="77.83" from="-214085908#1" to="1126750041#1" departLane="best" type="veh_passenger" departSpeed="max"/>
    <trip id="veh22" depart="81.54" from="124861803#0" to="665546552" departLane="best" type="veh_passenger" departSpeed="max"/>
    <trip id="veh23" depart="85.24" from="-1189813847" to="608078458" departLane="best" type="veh_passenger" departSpeed="max"/>
    <trip id="veh24" depart="88.95" from="1265177027#0" to="-22842320#1" departLane="best" type="veh_passenger"/>
    <trip id="veh25" depart="92.66" from="-788485782#7" to="317349751#3" departLane="best" type="veh_passenger"/>
    <trip id="veh26" depart="96.36" from="-124861824#1" to="1274598669#1" departLane="best" type="veh_passenger"/>
    <trip id="veh27" depart="100.07" from="-1265177026#0" to="1171539007" departLane="best" type="veh_passenger"/>
    <trip id="veh28" depart="103.77" from="1238879358#4" to="1243425888" departLane="best" type="veh_passenger"/>
    <trip id="veh29" depart="107.48" from="-214085919#1" to="-725293625#0" departLane="best" type="veh_passenger"/>
    <trip id="veh30" depart="111.19" from="-665670054" to="632266777#1" departLane="best" type="veh_passenger" departSpeed="max"/>
    <trip id="veh31" depart="114.89" from="-1189813847" to="665546552" departLane="best" type="veh_passenger" departSpeed="max"/>
    <trip id="veh32" depart="118.60" from="151522859#0" to="1107662879" departLane="best" type="veh_passenger"/>
    <trip id="veh33" depart="122.31" from="725363523#0" to="214085913#1" departLane="best" type="veh_passenger"/>
    <trip id="veh34" depart="126.01" from="124861814" to="1177177536#1" departLane="best" type="veh_passenger" departSpeed="max"/>
    <trip id="veh35" depart="129.72" from="124861824#0" to="-1126750041#0" departLane="best" type="veh_passenger"/>
    <trip id="veh36" depart="133.42" from="-124861817#5" to="-124861823#3" departLane="best" type="veh_passenger" departSpeed="max"/>
    <trip id="veh37" depart="137.13" from="-124861803#3" to="-1238879358#0" departLane="best" type="veh_passenger"/>
    <trip id="veh38" depart="140.84" from="-1238879358#6" to="1121689775#1" departLane="best" type="veh_passenger"/>
    <trip id="veh39" depart="144.54" from="124861812#2" to="1265177027#0" departLane="best" type="veh_passenger"/>
    <trip id="veh40" depart="148.25" from="-214085919#4" to="124861812#1" departLane="best" type="veh_passenger"/>
    <trip id="veh41" depart="151.96" from="-214085919#1" to="124861824#0" departLane="best" type="veh_passenger"/>
    <trip id="veh42" depart="155.66" from="1338550400" to="-124861817#2" departLane="best" type="veh_passenger"/>
    <trip id="veh43" depart="159.37" from="317349751#0" to="317349751#4" departLane="best" type="veh_passenger"/>
    <trip id="veh44" depart="163.07" from="-124861825#0" to="-22842320#0" departLane="best" type="veh_passenger"/>
    <trip id="veh45" depart="166.78" from="124861803#3" to="-1265177026#0" departLane="best" type="veh_passenger"/>
    <trip id="veh46" depart="170.49" from="-124861796#0" to="1187806249" departLane="best" type="veh_passenger"/>
    <trip id="veh47" depart="174.19" from="1303443733" to="1265177027#0" departLane="best" type="veh_passenger" departSpeed="max"/>
    <trip id="veh48" depart="177.90" from="22842320#0" to="1192260787" departLane="best" type="veh_passenger" departSpeed="max"/>
    <trip id="veh49" depart="181.61" from="-124861823#1" to="1171540750" departLane="best" type="veh_passenger"/>
    <trip id="veh50" depart="185.31" from="-1126750041#1" to="-22842320#0" departLane="best" type="veh_passenger" departSpeed="max"/>
    <trip id="veh51" depart="189.02" from="-214085908#1" to="-1265177026#0" departLane="best" type="veh_passenger" departSpeed="max"/>
    <trip id="veh52" depart="192.72" from="-214085919#5" to="1303633133" departLane="best" type="veh_passenger" departSpeed="max"/>
    <trip id="veh53" depart="196.43" from="22842320#0" to="-788485782#0" departLane="best" type="veh_passenger" departSpeed="max"/>
    <trip id="veh54" depart="200.14" from="1238879358#0" to="-317349751#5" departLane="best" type="veh_passenger" departSpeed="max"/>
    <trip id="veh55" depart="203.84" from="124861803#0" to="214085919#5" departLane="best" type="veh_passenger" departSpeed="max"/>
    <trip id="veh56" depart="207.55" from="-214085922#3" to="124861825#10" departLane="best" type="veh_passenger"/>
    <trip id="veh57" depart="211.26" from="-124861825#5" to="608078456" departLane="best" type="veh_passenger"/>
    <trip id="veh58" depart="214.96" from="725363523#0" to="-124858284#1" departLane="best" type="veh_passenger"/>
    <trip id="veh59" depart="218.67" from="1171539005" to="317349751#6" departLane="best" type="veh_passenger" departSpeed="max"/>
    <trip id="veh60" depart="222.37" from="-214085919#5" to="-214085949" departLane="best" type="veh_passenger" departSpeed="max"/>
    <trip id="veh61" depart="226.08" from="-1126750041#1" to="-1177177536#0" departLane="best" type="veh_passenger" departSpeed="max"/>
    <trip id="veh62" depart="229.79" from="124861796#0" to="-124861817#1" departLane="best" type="veh_passenger"/>
    <trip id="veh63" depart="233.49" from="1338550400" to="214085922#6" departLane="best" type="veh_passenger"/>
    <trip id="veh64" depart="237.20" from="124858284#4" to="124861796#0" departLane="best" type="veh_passenger"/>
    <trip id="veh65" depart="240.91" from="-439133784#1" to="1265177027#1" departLane="best" type="veh_passenger" departSpeed="max"/>
    <trip id="veh66" depart="244.61" from="1238879358#0" to="124861825#5" departLane="best" type="veh_passenger" departSpeed="max"/>
    <trip id="veh67" depart="248.32" from="665546553" to="725363527#1" departLane="best" type="veh_passenger" departSpeed="max"/>
    <trip id="veh68" depart="252.02" from="-788485782#7" to="-124861817#0" departLane="best" type="veh_passenger"/>
    <trip id="veh69" depart="255.73" from="-1265177027#0" to="-214085956" departLane="best" type="veh_passenger"/>
    <trip id="veh70" depart="259.44" from="124861817#1" to="-1238879358#3" departLane="best" type="veh_passenger"/>
    <trip id="veh71" depart="263.14" from="-124861812#1" to="-1238879358#0" departLane="best" type="veh_passenger"/>
    <trip id="veh72" depart="266.85" from="124861817#1" to="1126750041#1" departLane="best" type="veh_passenger"/>
    <trip id="veh73" depart="270.56" from="-1091258063" to="-220589494#0" departLane="best" type="veh_passenger" departSpeed="max"/>
    <trip id="veh74" depart="274.26" from="-124861809#1" to="124858284#3" departLane="best" type="veh_passenger"/>
    <trip id="veh75" depart="277.97" from="-214085919#5" to="124861821#3" departLane="best" type="veh_passenger" departSpeed="max"/>
    <trip id="veh76" depart="281.67" from="124861825#8" to="1338550400" departLane="best" type="veh_passenger"/>
    <trip id="veh77" depart="285.38" from="-665670054" to="-214670750" departLane="best" type="veh_passenger" departSpeed="max"/>
    <trip id="veh78" depart="289.09" from="-214085919#5" to="-22842320#0" departLane="best" type="veh_passenger" departSpeed="max"/>
    <trip id="veh79" depart="292.79" from="1265177027#3" to="-214670750" departLane="best" type="veh_passenger"/>
    <trip id="veh80" depart="296.50" from="214085972" to="1303633133" departLane="best" type="veh_passenger"/>
    <trip id="veh81" depart="300.21" from="22842320#0" to="1189813847" departLane="best" type="veh_passenger" departSpeed="max"/>
    <trip id="veh82" depart="303.91" from="632266777#0" to="124858284#3" departLane="best" type="veh_passenger"/>
    <trip id="veh83" depart="307.62" from="1155741719" to="1126750041#1" departLane="best" type="veh_passenger"/>
    <trip id="veh84" depart="311.32" from="-1189813847" to="608078458" departLane="best" type="veh_passenger" departSpeed="max"/>
    <trip id="veh85" depart="315.03" from="-214085949" to="-1238879358#1" departLane="best" type="veh_passenger"/>
    <trip id="veh86" depart="318.74" from="-214085956" to="725293625#1" departLane="best" type="veh_passenger"/>
    <trip id="veh87" depart="322.44" from="1126750041#0" to="-1107662879" departLane="best" type="veh_passenger"/>
    <trip id="veh88" depart="326.15" from="-124861825#3" to="-1303443733" departLane="best" type="veh_passenger"/>
    <trip id="veh89" depart="329.86" from="124861802" to="1187806250" departLane="best" type="veh_passenger"/>
    <trip id="veh90" depart="333.56" from="-214085908#1" to="-1238879358#6" departLane="best" type="veh_passenger" departSpeed="max"/>
    <trip id="veh91" depart="337.27" from="-124858284#9" to="1171540750" departLane="best" type="veh_passenger"/>
    <trip id="veh92" depart="340.97" from="-1189813847" to="-439133784#0" departLane="best" type="veh_passenger" departSpeed="max"/>
    <trip id="veh93" depart="344.68" from="-317349751#6" to="214085919#5" departLane="best" type="veh_passenger" departSpeed="max"/>
    <trip id="veh94" depart="348.39" from="-1238879358#3" to="124861821#3" departLane="best" type="veh_passenger"/>
    <trip id="veh95" depart="352.09" from="124861812#2" to="-1303443733" departLane="best" type="veh_passenger"/>
    <trip id="veh96" depart="355.80" from="214085922#6" to="-1238879358#0" departLane="best" type="veh_passenger"/>
    <trip id="veh97" depart="359.51" from="-1303633133" to="1121689775#0" departLane="best" type="veh_passenger" departSpeed="max"/>
    <trip id="veh98" depart="363.21" from="1187808932" to="-214670750" departLane="best" type="veh_passenger" departSpeed="max"/>
    <trip id="veh99" depart="366.92" from="-124858284#7" to="1187806250" departLane="best" type="veh_passenger"/>
    <trip id="veh100" depart="370.62" from="-1238879358#4" to="665670054" departLane="best" type="veh_passenger"/>
    <trip id="veh101" depart="374.33" from="-1189813847" to="1265177027#2" departLane="best" type="veh_passenger" departSpeed="max"/>
    <trip id="veh102" depart="378.04" from="-1177177536#1" to="-124861823#1" departLane="best" type="veh_passenger" departSpeed="max"/>
    <trip id="veh103" depart="381.74" from="-124861825#2" to="-1177177536#0" departLane="best" type="veh_passenger"/>
    <trip id="veh104" depart="385.45" from="-214085922#4" to="-124858284#3" departLane="best" type="veh_passenger"/>
    <trip id="veh105" depart="389.16" from="665546553" to="1238879358#3" departLane="best" type="veh_passenger" departSpeed="max"/>
    <trip id="veh106" depart="392.86" from="-1126750041#1" to="214085919#3" departLane="best" type="veh_passenger" departSpeed="max"/>
    <trip id="veh107" depart="396.57" from="-1126750041#1" to="-124861817#4" departLane="best" type="veh_passenger" departSpeed="max"/>
    <trip id="veh108" depart="400.27" from="665546553" to="725363523#1" departLane="best" type="veh_passenger" departSpeed="max"/>
    <trip id="veh109" depart="403.98" from="214670750" to="1265177026#1" departLane="best" type="veh_passenger" departSpeed="max"/>
    <trip id="veh110" depart="407.69" from="-1303633133" to="214085919#5" departLane="best" type="veh_passenger" departSpeed="max"/>
    <trip id="veh111" depart="411.39" from="-214085913#1" to="-788485782#0" departLane="best" type="veh_passenger"/>
    <trip id="veh112" depart="415.10" from="-124861825#8" to="-1238879358#5" departLane="best" type="veh_passenger"/>
    <trip id="veh113" depart="418.81" from="-1192260787" to="124861825#3" departLane="best" type="veh_passenger" departSpeed="max"/>
    <trip id="veh114" depart="422.51" from="124861812#0" to="124861824#2" departLane="best" type="veh_passenger" departSpeed="max"/>
    <trip id="veh115" depart="426.22" from="-439133784#1" to="124861809#0" departLane="best" type="veh_passenger" departSpeed="max"/>
    <trip id="veh116" depart="429.92" from="1303443733" to="788485782#1" departLane="best" type="veh_passenger" departSpeed="max"/>
    <trip id="veh117" depart="433.63" from="-317349751#1" to="214085919#3" departLane="best" type="veh_passenger"/>
    <trip id="veh118" depart="437.34" from="214085913#1" to="124858284#0" departLane="best" type="veh_passenger"/>
    <trip id="veh119" depart="441.04" from="124861824#3" to="214085919#1" departLane="best" type="veh_passenger"/>
    <trip id="veh120" depart="444.75" from="-124861817#3" to="-124861796#2" departLane="best" type="veh_passenger"/>
    <trip id="veh121" depart="448.46" from="-1243425888" to="1265177027#2" departLane="best" type="veh_passenger" departSpeed="max"/>
    <trip id="veh122" depart="452.16" from="-214085922#5" to="124861823#6" departLane="best" type="veh_passenger"/>
    <trip id="veh123" depart="455.87" from="124858284#1" to="-124861796#0" departLane="best" type="veh_passenger"/>
    <trip id="veh124" depart="459.57" from="-1238879358#1" to="317349751#6" departLane="best" type="veh_passenger"/>
    <trip id="veh125" depart="463.28" from="-124861825#5" to="665670054" departLane="best" type="veh_passenger"/>
    <trip id="veh126" depart="466.99" from="214085922#4" to="1171539007" departLane="best" type="veh_passenger"/>
    <trip id="veh127" depart="470.69" from="-1126750041#1" to="1338550401" departLane="best" type="veh_passenger" departSpeed="max"/>
    <trip id="veh128" depart="474.40" from="124861817#2" to="214085919#4" departLane="best" type="veh_passenger"/>
    <trip id="veh129" depart="478.11" from="1303443733" to="-214670750" departLane="best" type="veh_passenger" departSpeed="max"/>
    <trip id="veh130" depart="481.81" from="-124858284#4" to="124861817#5" departLane="best" type="veh_passenger"/>
    <trip id="veh131" depart="485.52" from="151522859#1" to="214085913#0" departLane="best" type="veh_passenger"/>
    <trip id="veh132" depart="489.22" from="124861824#2" to="1171539007" departLane="best" type="veh_passenger"/>
    <trip id="veh133" depart="492.93" from="124861823#0" to="632266777#1" departLane="best" type="veh_passenger"/>
    <trip id="veh134" depart="496.64" from="1187808932" to="1171539007" departLane="best" type="veh_passenger" departSpeed="max"/>
    <trip id="veh135" depart="500.34" from="320394882" to="124861817#5" departLane="best" type="veh_passenger"/>
    <trip id="veh136" depart="504.05" from="214085919#1" to="1155741719" departLane="best" type="veh_passenger"/>
    <trip id="veh137" depart="507.76" from="725363522#1" to="-124858284#3" departLane="best" type="veh_passenger"/>
    <trip id="veh138" depart="511.46" from="22842320#0" to="1187806250" departLane="best" type="veh_passenger" departSpeed="max"/>
    <trip id="veh139" depart="515.17" from="-124861823#7" to="124861825#9" departLane="best" type="veh_passenger"/>
    <trip id="veh140" depart="518.87" from="124861823#0" to="124861825#3" departLane="best" type="veh_passenger"/>
    <trip id="veh141" depart="522.58" from="-124611620" to="49591929" departLane="best" type="veh_passenger"/>
    <trip id="veh142" depart="526.29" from="-665670054" to="-124861817#1" departLane="best" type="veh_passenger" departSpeed="max"/>
    <trip id="veh143" depart="529.99" from="124861825#2" to="1274598669#0" departLane="best" type="veh_passenger"/>
    <trip id="veh144" depart="533.70" from="725363523#3" to="788485782#2" departLane="best" type="veh_passenger"/>
    <trip id="veh145" depart="537.41" from="-1189813847" to="-124858284#5" departLane="best" type="veh_passenger" departSpeed="max"/>
    <trip id="veh146" depart="541.11" from="214670750" to="-1265177026#1" departLane="best" type="veh_passenger" departSpeed="max"/>
    <trip id="veh147" depart="544.82" from="214085919#3" to="788485782#4" departLane="best" type="veh_passenger"/>
    <trip id="veh148" depart="548.52" from="-665546552" to="-124861809#0" departLane="best" type="veh_passenger" departSpeed="max"/>
    <trip id="veh149" depart="552.23" from="-1303633133" to="151522859#1" departLane="best" type="veh_passenger" departSpeed="max"/>
    <trip id="veh150" depart="555.94" from="-317349751#3" to="608078456" departLane="best" type="veh_passenger"/>
    <trip id="veh151" depart="559.64" from="214085922#2" to="-124861812#0" departLane="best" type="veh_passenger"/>
    <trip id="veh152" depart="563.35" from="725363527#0" to="1187806250" departLane="best" type="veh_passenger"/>
    <trip id="veh153" depart="567.06" from="-214085913#1" to="-124858284#9" departLane="best" type="veh_passenger"/>
    <trip id="veh154" depart="570.76" from="-1177177536#1" to="124861823#1" departLane="best" type="veh_passenger" departSpeed="max"/>
    <trip id="veh155" depart="574.47" from="-725293625#0" to="124861821#0" departLane="best" type="veh_passenger"/>
    <trip id="veh156" depart="578.17" from="124861814" to="788485782#6" departLane="best" type="veh_passenger" departSpeed="max"/>
    <trip id="veh157" depart="581.88" from="-317349751#6" to="214085922#0" departLane="best" type="veh_passenger" departSpeed="max"/>
    <trip id="veh158" depart="585.59" from="-214085919#5" to="725363522#0" departLane="best" type="veh_passenger" departSpeed="max"/>
    <trip id="veh159" depart="589.29" from="-124861823#7" to="-22842320#0" departLane="best" type="veh_passenger"/>
    <trip id="veh160" depart="593.00" from="-124858284#7" to="214085919#5" departLane="best" type="veh_passenger"/>
    <trip id="veh161" depart="596.71" from="-124861825#9" to="124861825#2" departLane="best" type="veh_passenger"/>
    <trip id="veh162" depart="600.41" from="-214085922#2" to="-1107662879" departLane="best" type="veh_passenger"/>
    <trip id="veh163" depart="604.12" from="124861796#1" to="124858284#2" departLane="best" type="veh_passenger"/>
    <trip id="veh164" depart="607.82" from="-1126750041#1" to="1189813847" departLane="best" type="veh_passenger" departSpeed="max"/>
    <trip id="veh165" depart="611.53" from="124858284#5" to="124861817#3" departLane="best" type="veh_passenger"/>
    <trip id="veh166" depart="615.24" from="-214085922#6" to="124861824#2" departLane="best" type="veh_passenger"/>
    <trip id="veh167" depart="618.94" from="-214085919#5" to="608078458" departLane="best" type="veh_passenger" departSpeed="max"/>
    <trip id="veh168" depart="622.65" from="-214085908#0" to="151522858" departLane="best" type="veh_passenger"/>
    <trip id="veh169" depart="626.36" from="1107662879" to="1243425888" departLane="best" type="veh_passenger"/>
    <trip id="veh170" depart="630.06" from="725363527#0" to="-788485782#0" departLane="best" type="veh_passenger"/>
    <trip id="veh171" depart="633.77" from="1107662879" to="-124861824#0" departLane="best" type="veh_passenger"/>
    <trip id="veh172" depart="637.47" from="1274598669#0" to="124861817#5" departLane="best" type="veh_passenger"/>
    <trip id="veh173" depart="641.18" from="-665546552" to="1238879358#6" departLane="best" type="veh_passenger" departSpeed="max"/>
    <trip id="veh174" depart="644.89" from="-317349751#4" to="-1265177026#1" departLane="best" type="veh_passenger"/>
    <trip id="veh175" depart="648.59" from="-1265177027#1" to="-1238879358#4" departLane="best" type="veh_passenger"/>
    <trip id="veh176" depart="652.30" from="-317349751#5" to="124861823#6" departLane="best" type="veh_passenger"/>
    <trip id="veh177" depart="656.01" from="1238879358#0" to="-725363522#0" departLane="best" type="veh_passenger" departSpeed="max"/>
    <trip id="veh178" depart="659.71" from="124861814" to="-124861825#3" departLane="best" type="veh_passenger" departSpeed="max"/>
    <trip id="veh179" depart="663.42" from="124861809#0" to="1126750041#1" departLane="best" type="veh_passenger"/>
    <trip id="veh180" depart="667.12" from="1265177026#1" to="320394882" departLane="best" type="veh_passenger"/>
    <trip id="veh181" depart="670.83" from="-665546552" to="-124861812#0" departLane="best" type="veh_passenger" departSpeed="max"/>
    <trip id="veh182" depart="674.54" from="124861803#0" to="-1126750042" departLane="best" type="veh_passenger" departSpeed="max"/>
    <trip id="veh183" depart="678.24" from="124861818#1" to="1192349845" departLane="best" type="veh_passenger"/>
    <trip id="veh184" depart="681.95" from="665946597#1" to="1177177536#0" departLane="best" type="veh_passenger"/>
    <trip id="veh185" depart="685.65" from="-1189813847" to="124858284#0" departLane="best" type="veh_passenger" departSpeed="max"/>
    <trip id="veh186" depart="689.36" from="124861803#0" to="-124861809#0" departLane="best" type="veh_passenger" departSpeed="max"/>
    <trip id="veh187" depart="693.07" from="-124858284#3" to="-665946598" departLane="best" type="veh_passenger"/>
    <trip id="veh188" depart="696.77" from="-1126750041#1" to="124861817#5" departLane="best" type="veh_passenger" departSpeed="max"/>
    <trip id="veh189" depart="700.48" from="124861812#1" to="-124861824#3" departLane="best" type="veh_passenger"/>
    <trip id="veh190" depart="704.19" from="124861825#2" to="151522858" departLane="best" type="veh_passenger"/>
    <trip id="veh191" depart="707.89" from="1177177536#0" to="1121687688" departLane="best" type="veh_passenger"/>
    <trip id="veh192" depart="711.60" from="665946597#0" to="-22842320#0" departLane="best" type="veh_passenger"/>
    <trip id="veh193" depart="715.30" from="-1177177536#1" to="632266777#1" departLane="best" type="veh_passenger" departSpeed="max"/>
    <trip id="veh194" depart="719.01" from="1265177027#2" to="-22842320#0" departLane="best" type="veh_passenger"/>
    <trip id="veh195" depart="722.72" from="1303443733" to="-124861812#0" departLane="best" type="veh_passenger" departSpeed="max"/>
    <trip id="veh196" depart="726.42" from="124861818#0" to="-317349751#5" departLane="best" type="veh_passenger"/>
    <trip id="veh197" depart="730.13" from="124861823#3" to="725363523#1" departLane="best" type="veh_passenger"/>
    <trip id="veh198" depart="733.84" from="-608078456" to="439133784#0" departLane="best" type="veh_passenger" departSpeed="max"/>
    <trip id="veh199" depart="737.54" from="317349751#1" to="-22842320#0" departLane="best" type="veh_passenger"/>
    <trip id="veh200" depart="741.25" from="-725293625#1" to="-317349751#2" departLane="best" type="veh_passenger" departSpeed="max"/>
    <trip id="veh201" depart="744.95" from="124861824#2" to="1171540750" departLane="best" type="veh_passenger"/>
    <trip id="veh202" depart="748.66" from="124861812#0" to="632266777#1" departLane="best" type="veh_passenger" departSpeed="max"/>
    <trip id="veh203" depart="752.37" from="124861823#6" to="317349751#6" departLane="best" type="veh_passenger"/>
    <trip id="veh204" depart="756.07" from="124861812#0" to="124858284#5" departLane="best" type="veh_passenger" departSpeed="max"/>
    <trip id="veh205" depart="759.78" from="-214085919#0" to="214085908#1" departLane="best" type="veh_passenger"/>
    <trip id="veh206" depart="763.49" from="-1177177536#1" to="1126750041#1" departLane="best" type="veh_passenger" departSpeed="max"/>
    <trip id="veh207" depart="767.19" from="725363524#0" to="-124861803#0" departLane="best" type="veh_passenger"/>
    <trip id="veh208" depart="770.90" from="666847499#0" to="220589497#2" departLane="best" type="veh_passenger" departSpeed="max"/>
    <trip id="veh209" depart="774.60" from="124861812#0" to="1192349845" departLane="best" type="veh_passenger" departSpeed="max"/>
    <trip id="veh210" depart="778.31" from="1238879358#0" to="-214085972" departLane="best" type="veh_passenger" departSpeed="max"/>
    <trip id="veh211" depart="782.02" from="124858284#3" to="608078458" departLane="best" type="veh_passenger"/>
    <trip id="veh212" depart="785.72" from="788485782#3" to="124861796#0" departLane="best" type="veh_passenger"/>
    <trip id="veh213" depart="789.43" from="-608078456" to="-124861803#2" departLane="best" type="veh_passenger" departSpeed="max"/>
    <trip id="veh214" depart="793.14" from="124858284#1" to="214085919#4" departLane="best" type="veh_passenger"/>
    <trip id="veh215" depart="796.84" from="632266777#1" to="608078458" departLane="best" type="veh_passenger"/>
    <trip id="veh216" depart="800.55" from="317349751#1" to="725363526#0" departLane="best" type="veh_passenger"/>
    <trip id="veh217" depart="804.25" from="632266777#1" to="1265177027#1" departLane="best" type="veh_passenger"/>
    <trip id="veh218" depart="807.96" from="665946597#2" to="1189813847" departLane="best" type="veh_passenger"/>
    <trip id="veh219" depart="811.67" from="124861825#3" to="214085922#4" departLane="best" type="veh_passenger"/>
    <trip id="veh220" depart="815.37" from="-317349751#6" to="-124861824#2" departLane="best" type="veh_passenger" departSpeed="max"/>
    <trip id="veh221" depart="819.08" from="665946598" to="-1265177026#1" departLane="best" type="veh_passenger"/>
    <trip id="veh222" depart="822.79" from="-124861803#2" to="1243425888" departLane="best" type="veh_passenger"/>
    <trip id="veh223" depart="826.49" from="124861812#2" to="-788485782#6" departLane="best" type="veh_passenger"/>
    <trip id="veh224" depart="830.20" from="-124861824#2" to="1265177027#3" departLane="best" type="veh_passenger"/>
    <trip id="veh225" depart="833.90" from="1303443733" to="317349751#4" departLane="best" type="veh_passenger" departSpeed="max"/>
    <trip id="veh226" depart="837.61" from="-1189813847" to="124858284#2" departLane="best" type="veh_passenger" departSpeed="max"/>
    <trip id="veh227" depart="841.32" from="-124861824#3" to="1187806249" departLane="best" type="veh_passenger"/>
    <trip id="veh228" depart="845.02" from="-124861823#1" to="-22842320#0" departLane="best" type="veh_passenger"/>
    <trip id="veh229" depart="848.73" from="-214085908#1" to="-214085913#0" departLane="best" type="veh_passenger" departSpeed="max"/>
    <trip id="veh230" depart="852.44" from="-725293625#1" to="665546552" departLane="best" type="veh_passenger" departSpeed="max"/>
    <trip id="veh231" depart="856.14" from="-1126750041#0" to="725293625#1" departLane="best" type="veh_passenger"/>
    <trip id="veh232" depart="859.85" from="-1243425888" to="-788485782#7" departLane="best" type="veh_passenger" departSpeed="max"/>
    <trip id="veh233" depart="863.55" from="632266777#0" to="439133784#1" departLane="best" type="veh_passenger"/>
    <trip id="veh234" depart="867.26" from="-214085919#5" to="124861812#2" departLane="best" type="veh_passenger" departSpeed="max"/>