<?xml version="1.0" encoding="UTF-8"?>

<!-- generated on 2025-09-21 13:27:01.020610 by osmWebWizard.py UNKNOWN
<configuration>
    <net-file value="/home/vishwajit/Workspace/SIH2025/FDRL/sumo_files/2025-09-21-13-26-55/osm.net.xml.gz"/>
    <output-trip-file value="/home/vishwajit/Workspace/SIH2025/FDRL/sumo_files/2025-09-21-13-26-55/osm.motorcycle.trips.xml"/>
    <route-file value="/home/vishwajit/Workspace/SIH2025/FDRL/sumo_files/2025-09-21-13-26-55/osm.motorcycle.rou.xml"/>
    <prefix value="motorcycle"/>
    <trip-attributes value="departLane=&quot;best&quot;"/>
    <fringe-start-attributes value="departSpeed=&quot;max&quot;"/>
    <vehicle-class value="motorcycle"/>
    <fringe-factor value="5"/>
    <edge-permission value="motorcycle"/>
    <via-edge-types value="highway.motorway,highway.motorway_link,highway.trunk_link,highway.primary_link,highway.secondary_link,highway.tertiary_link"/>
    <seed value="43"/>
    <max-distance value="1200.0"/>
    <remove-loops value="True"/>
    <insertion-density value="40.0"/>
</configuration>
-->

<routes xmlns:xsi="http://www.w3.org/2001/XMLSchema-instance" xsi:noNamespaceSchemaLocation="http://sumo.dlr.de/xsd/routes_file.xsd">
    <vType id="motorcycle_motorcycle" vClass="motorcycle"/>
    <trip id="motorcycle0" depart="0.00" from="-1126750041#1" to="1265177027#3" departLane="best" type="motorcycle_motorcycle" departSpeed="max"/>
    <trip id="motorcycle1" depart="3.71" from="-608078456" to="1192349845" departLane="best" type="motorcycle_motorcycle" departSpeed="max"/>
    <trip id="motorcycle2" depart="7.41" from="-220589497#2" to="438962717#1" departLane="best" type="motorcycle_motorcycle" departSpeed="max"/>
    <trip id="motorcycle3" depart="11.12" from="1126750042" to="214085919#5" departLane="best" type="motorcycle_motorcycle"/>
    <trip id="motorcycle4" depart="14.82" from="-439133784#1" to="-1265177027#0" departLane="best" type="motorcycle_motorcycle" departSpeed="max"/>
    <trip id="motorcycle5" depart="18.53" from="214670750" to="317349751#1" departLane="best" type="motorcycle_motorcycle" departSpeed="max"/>
    <trip id="motorcycle6" depart="22.24" from="-725293625#1" to="1192260787" departLane="best" type="motorcycle_motorcycle" departSpeed="max"/>
    <trip id="motorcycle7" depart="25.94" from="1265177027#0" to="124861812#2" departLane="best" type="motorcycle_motorcycle"/>
    <trip id="motorcycle8" depart="29.65" from="-725293625#1" to="124858284#7" departLane="best" type="motorcycle_motorcycle" departSpeed="max"/>
    <trip id="motorcycle9" depart="33.36" from="-220589497#2" to="-124611620" departLane="best" type="motorcycle_motorcycle" departSpeed="max"/>
    <trip id="motorcycle10" depart="37.06" from="317349751#1" to="1243425888" departLane="best" type="motorcycle_motorcycle"/>
    <trip id="motorcycle11" depart="40.77" from="1238879358#0" to="665946597#0" departLane="best" type="motorcycle_motorcycle" departSpeed="max"/>
    <trip id="motorcycle12" depart="44.47" from="124861812#2" to="-124861809#1" departLane="best" type="motorcycle_motorcycle"/>
    <trip id="motorcycle13" depart="48.18" from="317349751#5" to="-725363522#1" departLane="best" type="motorcycle_motorcycle"/>
    <trip id="motorcycle14" depart="51.89" from="-788485782#5" to="1274598669#1" departLane="best" type="motorcycle_motorcycle"/>
    <trip id="motorcycle15" depart="55.59" from="1274598669#0" to="-124858284#0" departLane="best" type="motorcycle_motorcycle"/>
    <trip id="motorcycle16" depart="59.30" from="-124861803#2" to="124861817#2" departLane="best" type="motorcycle_motorcycle"/>
    <trip id="motorcycle17" depart="63.01" from="-1238879358#1" to="1192260787" departLane="best" type="motorcycle_motorcycle"/>
    <trip id="motorcycle18" depart="66.71" from="1274598669#0" to="725293625#1" departLane="best" type="motorcycle_motorcycle"/>
    <trip id="motorcycle19" depart="70.42" from="725363523#2" to="124861817#1" departLane="best" type="motorcycle_motorcycle"/>
    <trip id="motorcycle20" depart="74.12" from="-1189813847" to="-124861823#2" departLane="best" type="motorcycle_motorcycle" departSpeed="max"/>
    <trip id="motorcycle21" depart="77.83" from="-1189813847" to="124861825#1" departLane="best" type="motorcycle_motorcycle" departSpeed="max"/>
    <trip id="motorcycle22" depart="81.54" from="-124611617#1" to="220589498#0" departLane="best" type="motorcycle_motorcycle"/>
    <trip id="motorcycle23" depart="85.24" from="-49591929" to="-124611611#1" departLane="best" type="motorcycle_motorcycle" departSpeed="max"/>
    <trip id="motorcycle24" depart="88.95" from="725363526#0" to="-124861823#1" departLane="best" type="motorcycle_motorcycle"/>
    <trip id="motorcycle25" depart="92.66" from="124861824#0" to="788485782#3" departLane="best" type="motorcycle_motorcycle"/>
    <trip id="motorcycle26" depart="96.36" from="-214085922#2" to="1338550401" departLane="best" type="motorcycle_motorcycle"/>
    <trip id="motorcycle27" depart="100.07" from="-665946598" to="665946597#2" departLane="best" type="motorcycle_motorcycle"/>
    <trip id="motorcycle28" depart="103.77" from="124861817#4" to="320394882" departLane="best" type="motorcycle_motorcycle"/>
    <trip id="motorcycle29" depart="107.48" from="124861821#2" to="-124861809#1" departLane="best" type="motorcycle_motorcycle"/>
    <trip id="motorcycle30" depart="111.19" from="-124861817#3" to="665946597#1" departLane="best" type="motorcycle_motorcycle"/>
    <trip id="motorcycle31" depart="114.89" from="-317349751#6" to="1265177026#0" departLane="best" type="motorcycle_motorcycle" departSpeed="max"/>
    <trip id="motorcycle32" depart="118.60" from="1238879358#0" to="665546552" departLane="best" type="motorcycle_motorcycle" departSpeed="max"/>
    <trip id="motorcycle33" depart="122.31" from="-214085919#5" to="-788485782#2" departLane="best" type="motorcycle_motorcycle" departSpeed="max"/>
    <trip id="motorcycle34" depart="126.01" from="-124861803#2" to="-1265177027#0" departLane="best" type="motorcycle_motorcycle"/>
    <trip id="motorcycle35" depart="129.72" from="214085922#3" to="1303633133" departLane="best" type="motorcycle_motorcycle"/>
    <trip id="motorcycle36" depart="133.42" from="725363523#1" to="124861825#2" departLane="best" type="motorcycle_motorcycle"/>
    <trip id="motorcycle37" depart="137.13" from="725363522#0" to="-214085922#4" departLane="best" type="motorcycle_motorcycle"/>
    <trip id="motorcycle38" depart="140.84" from="-124861803#3" to="-214085922#0" departLane="best" type="motorcycle_motorcycle"/>
    <trip id="motorcycle39" depart="144.54" from="-124861823#1" to="1187806250" departLane="best" type="motorcycle_motorcycle"/>
    <trip id="motorcycle40" depart="148.25" from="-1187806250" to="-1238879358#4" departLane="best" type="motorcycle_motorcycle" departSpeed="max"/>
    <trip id="motorcycle41" depart="151.96" from="1126750041#0" to="124861817#5" departLane="best" type="motorcycle_motorcycle"/>
    <trip id="motorcycle42" depart="155.66" from="-725293625#1" to="665546552" departLane="best" type="motorcycle_motorcycle" departSpeed="max"/>
    <trip id="motorcycle43" depart="159.37" from="-1243425888" to="214085922#0" departLane="best" type="motorcycle_motorcycle" departSpeed="max"/>
    <trip id="motorcycle44" depart="163.07" from="124861817#3" to="-124861823#1" departLane="best" type="motorcycle_motorcycle"/>
    <trip id="motorcycle45" depart="166.78" from="124858284#0" to="-214085913#0" departLane="best" type="motorcycle_motorcycle"/>
    <trip id="motorcycle46" depart="170.49" from="-124861825#5" to="-124861823#5" departLane="best" type="motorcycle_motorcycle"/>
    <trip id="motorcycle47" depart="174.19" from="1187808932" to="1265177027#1" departLane="best" type="motorcycle_motorcycle" departSpeed="max"/>
    <trip id="motorcycle48" depart="177.90" from="-124861825#9" to="1274598669#0" departLane="best" type="motorcycle_motorcycle"/>
    <trip id="motorcycle49" depart="181.61" from="-1265177026#1" to="124861823#5" departLane="best" type="motorcycle_motorcycle"/>
    <trip id="motorcycle50" depart="185.31" from="124861823#5" to="1189813847" departLane="best" type="motorcycle_motorcycle"/>
    <trip id="motorcycle51" depart="189.02" from="124861796#0" to="-317349751#2" departLane="best" type="motorcycle_motorcycle"/>
    <trip id="motorcycle52" depart="192.72" from="124861812#0" to="-439133784#0" departLane="best" type="motorcycle_motorcycle" departSpeed="max"/>
    <trip id="motorcycle53" depart="196.43" from="-665546552" to="1177177536#1" departLane="best" type="motorcycle_motorcycle" departSpeed="max"/>
    <trip id="motorcycle54" depart="200.14" from="-788485782#1" to="124858284#7" departLane="best" type="motorcycle_motorcycle"/>
    <trip id="motorcycle55" depart="203.84" from="-124861817#5" to="665670054" departLane="best" type="motorcycle_motorcycle" departSpeed="max"/>
    <trip id="motorcycle56" depart="207.55" from="124861796#0" to="317349751#1" departLane="best" type="motorcycle_motorcycle"/>
    <trip id="motorcycle57" depart="211.26" from="124861817#3" to="608078458" departLane="best" type="motorcycle_motorcycle"/>
    <trip id="motorcycle58" depart="214.96" from="317349751#3" to="-214085956" departLane="best" type="motorcycle_motorcycle"/>
    <trip id="motorcycle59" depart="218.67" from="788485782#1" to="124861817#5" departLane="best" type="motorcycle_motorcycle"/>
    <trip id="motorcycle60" depart="222.37" from="124861823#6" to="1238879358#5" departLane="best" type="motorcycle_motorcycle"/>
    <trip id="motorcycle61" depart="226.08" from="-124861825#2" to="1192260787" departLane="best" type="motorcycle_motorcycle"/>
    <trip id="motorcycle62" depart="229.79" from="-214085922#4" to="1177177536#1" departLane="best" type="motorcycle_motorcycle"/>
    <trip id="motorcycle63" depart="233.49" from="-124861825#8" to="-124861823#7" departLane="best" type="motorcycle_motorcycle"/>
    <trip id="motorcycle64" depart="237.20" from="151522859#1" to="-788485782#7" departLane="best" type="motorcycle_motorcycle"/>
    <trip id="motorcycle65" depart="240.91" from="-220589497#1" to="220589494#0" departLane="best" type="motorcycle_motorcycle"/>
    <trip id="motorcycle66" depart="244.61" from="124861817#2" to="1177177536#1" departLane="best" type="motorcycle_motorcycle"/>
    <trip id="motorcycle67" depart="248.32" from="-124861824#0" to="124861809#1" departLane="best" type="motorcycle_motorcycle"/>
    <trip id="motorcycle68" depart="252.02" from="-124861796#2" to="608078456" departLane="best" type="motorcycle_motorcycle"/>
    <trip id="motorcycle69" depart="255.73" from="1303443733" to="-214085919#4" departLane="best" type="motorcycle_motorcycle" departSpeed="max"/>
    <trip id="motorcycle70" depart="259.44" from="-124858284#9" to="665946597#2" departLane="best" type="motorcycle_motorcycle"/>
    <trip id="motorcycle71" depart="263.14" from="1238879358#0" to="1338550401" departLane="best" type="motorcycle_motorcycle" departSpeed="max"/>
    <trip id="motorcycle72" depart="266.85" from="49591851" to="-220589498#1" departLane="best" type="motorcycle_motorcycle" departSpeed="max"/>
    <trip id="motorcycle73" depart="270.56" from="-665946598" to="665546552" departLane="best" type="motorcycle_motorcycle"/>
    <trip id="motorcycle74" depart="274.26" from="22842320#0" to="317349751#6" departLane="best" type="motorcycle_motorcycle" departSpeed="max"/>
    <trip id="motorcycle75" depart="277.97" from="-725363522#0" to="-124861823#5" departLane="best" type="motorcycle_motorcycle"/>
    <trip id="motorcycle76" depart="281.67" from="-439133784#1" to="1187806250" departLane="best" type="motorcycle_motorcycle" departSpeed="max"/>
    <trip id="motorcycle77" depart="285.38" from="-608078458" to="124861823#6" departLane="best" type="motorcycle_motorcycle" departSpeed="max"/>
    <trip id="motorcycle78" depart="289.09" from="-1192349845" to="124861825#6" departLane="best" type="motorcycle_motorcycle" departSpeed="max"/>
    <trip id="motorcycle79" depart="292.79" from="-665670054" to="317349751#0" departLane="best" type="motorcycle_motorcycle" departSpeed="max"/>
    <trip id="motorcycle80" depart="296.50" from="-1303633133" to="124861825#10" departLane="best" type="motorcycle_motorcycle" departSpeed="max"/>
    <trip id="motorcycle81" depart="300.21" from="-124861817#3" to="1274598669#0" departLane="best" type="motorcycle_motorcycle"/>
    <trip id="motorcycle82" depart="303.91" from="-665546552" to="725293625#1" departLane="best" type="motorcycle_motorcycle" departSpeed="max"/>
    <trip id="motorcycle83" depart="307.62" from="317349751#2" to="317349751#6" departLane="best" type="motorcycle_motorcycle"/>
    <trip id="motorcycle84" depart="311.32" from="-124861802" to="124861821#1" departLane="best" type="motorcycle_motorcycle"/>
    <trip id="motorcycle85" depart="315.03" from="-320394882" to="-124858284#4" departLane="best" type="motorcycle_motorcycle"/>
    <trip id="motorcycle86" depart="318.74" from="124858284#7" to="-124861803#0" departLane="best" type="motorcycle_motorcycle"/>
    <trip id="motorcycle87" depart="322.44" from="317349751#3" to="665670054" departLane="best" type="motorcycle_motorcycle"/>
    <trip id="motorcycle88" depart="326.15" from="-1187815339" to="49591929" departLane="best" type="motorcycle_motorcycle" departSpeed="max"/>
    <trip id="motorcycle89" depart="329.86" from="124861803#2" to="-214085922#5" departLane="best" type="motorcycle_motorcycle"/>
    <trip id="motorcycle90" depart="333.56" from="-1265177027#1" to="124861817#4" departLane="best" type="motorcycle_motorcycle"/>
    <trip id="motorcycle91" depart="337.27" from="1303443733" to="124861818#1" departLane="best" type="motorcycle_motorcycle" departSpeed="max"/>
    <trip id="motorcycle92" depart="340.97" from="-317349751#6" to="124861821#1" departLane="best" type="motorcycle_motorcycle" departSpeed="max"/>
    <trip id="motorcycle93" depart="344.68" from="214670750" to="124861825#1" departLane="best" type="motorcycle_motorcycle" departSpeed="max"/>
    <trip id="motorcycle94" depart="348.39" from="-608078456" to="124861809#0" departLane="best" type="motorcycle_motorcycle" departSpeed="max"/>
    <trip id="motorcycle95" depart="352.09" from="-124861817#2" to="1177177536#0" departLane="best" type="motorcycle_motorcycle"/>
    <trip id="motorcycle96" depart="355.80" from="214085922#6" to="1189813847" departLane="best" type="motorcycle_motorcycle"/>
    <trip id="motorcycle97" depart="359.51" from="-1091258063" to="220589507" departLane="best" type="motorcycle_motorcycle" departSpeed="max"/>
    <trip id="motorcycle98" depart="363.21" from="1187808932" to="214085922#3" departLane="best" type="motorcycle_motorcycle" departSpeed="max"/>
    <trip id="motorcycle99" depart="366.92" from="-1238879358#1" to="1177177536#1" departLane="best" type="motorcycle_motorcycle"/>
    <trip id="motorcycle100" depart="370.62" from="-608078456" to="-124861823#0" departLane="best" type="motorcycle_motorcycle" departSpeed="max"/>
    <trip id="motorcycle101" depart="374.33" from="124861814" to="1192349845" departLane="best" type="motorcycle_motorcycle" departSpeed="max"/>
    <trip id="motorcycle102" depart="378.04" from="-788485782#3" to="-214085956" departLane="best" type="motorcycle_motorcycle"/>
    <trip id="motorcycle103" depart="381.74" from="124861825#8" to="-1177177536#0" departLane="best" type="motorcycle_motorcycle"/>
    <trip id="motorcycle104" depart="385.45" from="-214085913#1" to="-124861812#0" departLane="best" type="motorcycle_motorcycle"/>
    <trip id="motorcycle105" depart="389.16" from="-1189813847" to="-1177177536#0" departLane="best" type="motorcycle_motorcycle" departSpeed="max"/>
    <trip id="motorcycle106" depart="392.86" from="-788485782#3" to="-124861796#2" departLane="best" type="motorcycle_motorcycle"/>
    <trip id="motorcycle107" depart="396.57" from="-1238879358#3" to="1171540750" departLane="best" type="motorcycle_motorcycle"/>
    <trip id="motorcycle108" depart="400.27" from="124861812#2" to="-214085913#0" departLane="best" type="motorcycle_motorcycle"/>
    <trip id="motorcycle109" depart="403.98" from="788485782#4" to="-788485782#7" departLane="best" type="motorcycle_motorcycle"/>
    <trip id="motorcycle110" depart="407.69" from="22842320#1" to="-665546553" departLane="best" type="motorcycle_motorcycle"/>
    <trip id="motorcycle111" depart="411.39" from="-1265177027#3" to="1171540750" departLane="best" type="motorcycle_motorcycle"/>
    <trip id="motorcycle112" depart="415.10" from="-1107662879" to="151522859#1" departLane="best" type="motorcycle_motorcycle"/>
    <trip id="motorcycle113" depart="418.81" from="-1189813847" to="124861817#5" departLane="best" type="motorcycle_motorcycle" departSpeed="max"/>
    <trip id="motorcycle114" depart="422.51" from="-1187806250" to="1171540750" departLane="best" type="motorcycle_motorcycle" departSpeed="max"/>
    <trip id="motorcycle115" depart="426.22" from="-124861825#10" to="725293625#0" departLane="best" type="motorcycle_motorcycle"/>
    <trip id="motorcycle116" depart="429.92" from="-214085908#0" to="-788485782#6" departLane="best" type="motorcycle_motorcycle"/>
    <trip id="motorcycle117" depart="433.63" from="-214085908#1" to="-124861823#1" departLane="best" type="motorcycle_motorcycle" departSpeed="max"/>
    <trip id="motorcycle118" depart="437.34" from="-1265177026#0" to="-665546553" departLane="best" type="motorcycle_motorcycle"/>
    <trip id="motorcycle119" depart="441.04" from="-124861817#5" to="-124861823#0" departLane="best" type="motorcycle_motorcycle" departSpeed="max"/>
    <trip id="motorcycle120" depart="444.75" from="-214085919#5" to="124858284#4" departLane="best" type="motorcycle_motorcycle" departSpeed="max"/>
    <trip id="motorcycle121" depart="448.46" from="-1265177027#3" to="-124861812#2" departLane="best" type="motorcycle_motorcycle"/>
    <trip id="motorcycle122" depart="452.16" from="317349751#4" to="1177177536#1" departLane="best" type="motorcycle_motorcycle"/>
    <trip id="motorcycle123" depart="455.87" from="-439133784#1" to="-1265177026#0" departLane="best" type="motorcycle_motorcycle" departSpeed="max"/>
    <trip id="motorcycle124" depart="459.57" from="124861812#0" to="151522859#0" departLane="best" type="motorcycle_motorcycle" departSpeed="max"/>
    <trip id="motorcycle125" depart="463.28" from="-124861825#3" to="124861821#0" departLane="best" type="motorcycle_motorcycle"/>
    <trip id="motorcycle126" depart="466.99" from="-1192349845" to="-665546553" departLane="best" type="motorcycle_motorcycle" departSpeed="max"/>
    <trip id="motorcycle127" depart="470.69" from="-22842320#1" to="1126750041#1" departLane="best" type="motorcycle_motorcycle"/>
    <trip id="motorcycle128" depart="474.40" from="665546553" to="-1238879358#0" departLane="best" type="motorcycle_motorcycle" departSpeed="max"/>
    <trip id="motorcycle129" depart="478.11" from="1265177026#0" to="-124861825#8" departLane="best" type="motorcycle_motorcycle"/>
    <trip id="motorcycle130" depart="481.81" from="-124861809#0" to="-788485782#3" departLane="best" type="motorcycle_motorcycle"/>
    <trip id="motorcycle131" depart="485.52" from="124858284#1" to="-665546553" departLane="best" type="motorcycle_motorcycle"/>
    <trip id="motorcycle132" depart="489.22" from="-725363522#1" to="1238879358#4" departLane="best" type="motorcycle_motorcycle"/>
    <trip id="motorcycle133" depart="492.93" from="632266777#1" to="124861796#0" departLane="best" type="motorcycle_motorcycle"/>
    <trip id="motorcycle134" depart="496.64" from="-1265177026#0" to="124861821#3" departLane="best" type="motorcycle_motorcycle"/>
    <trip id="motorcycle135" depart="500.34" from="124861823#3" to="-1177177536#0" departLane="best" type="motorcycle_motorcycle"/>
    <trip id="motorcycle136" depart="504.05" from="-1187806250" to="1303633133" departLane="best" type="motorcycle_motorcycle" departSpeed="max"/>
    <trip id="motorcycle137" depart="507.76" from="-1243425888" to="788485782#3" departLane="best" type="motorcycle_motorcycle" departSpeed="max"/>
    <trip id="motorcycle138" depart="511.46" from="-124861825#2" to="124861824#0" departLane="best" type="motorcycle_motorcycle"/>
    <trip id="motorcycle139" depart="515.17" from="-124861825#8" to="-1265177026#0" departLane="best" type="motorcycle_motorcycle"/>
    <trip id="motorcycle140" depart="518.87" from="-439133784#1" to="1192349845" departLane="best" type="motorcycle_motorcycle" departSpeed="max"/>
    <trip id="motorcycle141" depart="522.58" from="-1177177536#1" to="-124861825#7" departLane="best" type="motorcycle_motorcycle" departSpeed="max"/>
    <trip id="motorcycle142" depart="526.29" from="-220589498#1" to="124611611#4" departLane="best" type="motorcycle_motorcycle"/>
    <trip id="motorcycle143" depart="529.99" from="124861817#3" to="-124861823#5" departLane="best" type="motorcycle_motorcycle"/>
    <trip id="motorcycle144" depart="533.70" from="-49591929" to="1091258062" departLane="best" type="motorcycle_motorcycle" departSpeed="max"/>
    <trip id="motorcycle145" depart="537.41" from="-1189813847" to="665670054" departLane="best" type="motorcycle_motorcycle" departSpeed="max"/>
    <trip id="motorcycle146" depart="541.11" from="1238879358#0" to="214085919#5" departLane="best" type="motorcycle_motorcycle" departSpeed="max"/>
    <trip id="motorcycle147" depart="544.82" from="-1303633133" to="-22842320#0" departLane="best" type="motorcycle_motorcycle" departSpeed="max"/>
    <trip id="motorcycle148" depart="548.52" from="-317349751#2" to="124861821#0" departLane="best" type="motorcycle_motorcycle"/>
    <trip id="motorcycle149" depart="552.23" from="-608078456" to="1274598669#0" departLane="best" type="motorcycle_motorcycle" departSpeed="max"/>
    <trip id="motorcycle150" depart="555.94" from="788485782#2" to="124861809#0" departLane="best" type="motorcycle_motorcycle"/>
    <trip id="motorcycle151" depart="559.64" from="151522858" to="725293625#1" departLane="best" type="motorcycle_motorcycle"/>
    <trip id="motorcycle152" depart="563.35" from="725363524#0" to="-788485782#3" departLane="best" type="motorcycle_motorcycle"/>
    <trip id="motorcycle153" depart="567.06" from="214085956" to="1265177027#3" departLane="best" type="motorcycle_motorcycle"/>
    <trip id="motorcycle154" depart="570.76" from="317349751#5" to="608078458" departLane="best" type="motorcycle_motorcycle"/>
    <trip id="motorcycle155" depart="574.47" from="-214085922#2" to="214085908#0" departLane="best" type="motorcycle_motorcycle"/>
    <trip id="motorcycle156" depart="578.17" from="214085922#3" to="1177177536#1" departLane="best" type="motorcycle_motorcycle"/>
    <trip id="motorcycle157" depart="581.88" from="632266777#1" to="1243425888" departLane="best" type="motorcycle_motorcycle"/>
    <trip id="motorcycle158" depart="585.59" from="-124861824#1" to="1171540750" departLane="best" type="motorcycle_motorcycle"/>
    <trip id="motorcycle159" depart="589.29" from="-214085919#5" to="124861821#1" departLane="best" type="motorcycle_motorcycle" departSpeed="max"/>
    <trip id="motorcycle160" depart="593.00" from="-214085919#1" to="1192260787" departLane="best" type="motorcycle_motorcycle"/>
    <trip id="motorcycle161" depart="596.71" from="-1189813847" to="-665546553" departLane="best" type="motorcycle_motorcycle" departSpeed="max"/>
    <trip id="motorcycle162" depart="600.41" from="-1238879358#1" to="1189813847" departLane="best" type="motorcycle_motorcycle"/>
    <trip id="motorcycle163" depart="604.12" from="-1126750041#1" to="788485782#3" departLane="best" type="motorcycle_motorcycle" departSpeed="max"/>
    <trip id="motorcycle164" depart="607.82" from="-124861817#5" to="-1177177536#0" departLane="best" type="motorcycle_motorcycle" departSpeed="max"/>
    <trip id="motorcycle165" depart="611.53" from="1187808932" to="665546552" departLane="best" type="motorcycle_motorcycle" departSpeed="max"/>
    <trip id="motorcycle166" depart="615.24" from="-1187806250" to="1189813847" departLane="best" type="motorcycle_motorcycle" departSpeed="max"/>
    <trip id="motorcycle167" depart="618.94" from="214085949" to="-214670750" departLane="best" type="motorcycle_motorcycle"/>
    <trip id="motorcycle168" depart="622.65" from="-1243425888" to="-124858284#3" departLane="best" type="motorcycle_motorcycle" departSpeed="max"/>
    <trip id="motorcycle169" depart="626.36" from="124861817#1" to="214085922#0" departLane="best" type="motorcycle_motorcycle"/>
    <trip id="motorcycle170" depart="630.06" from="-49591929" to="220589494#0" departLane="best" type="motorcycle_motorcycle" departSpeed="max"/>
    <trip id="motorcycle171" depart="633.77" from="-214085919#5" to="608078458" departLane="best" type="motorcycle_motorcycle" departSpeed="max"/>
    <trip id="motorcycle172" depart="637.47" from="124861825#1" to="124861818#1" departLane="best" type="motorcycle_motorcycle"/>
    <trip id="motorcycle173" depart="641.18" from="214085972" to="124861825#5" departLane="best" type="motorcycle_motorcycle"/>
    <trip id="motorcycle174" depart="644.89" from="-439133784#1" to="-665546553" departLane="best" type="motorcycle_motorcycle" departSpeed="max"/>
    <trip id="motorcycle175" depart="648.59" from="214085908#0" to="-788485782#5" departLane="best" type="motorcycle_motorcycle"/>
    <trip id="motorcycle176" depart="652.30" from="-1189813847" to="317349751#6" departLane="best" type="motorcycle_motorcycle" departSpeed="max"/>
    <trip id="motorcycle177" depart="656.01" from="124611611#2" to="-124611617#2" departLane="best" type="motorcycle_motorcycle"/>
    <trip id="motorcycle178" depart="659.71" from="-1192260787" to="-320394882" departLane="best" type="motorcycle_motorcycle" departSpeed="max"/>
    <trip id="motorcycle179" depart="663.42" from="151522858" to="214085913#0" departLane="best" type="motorcycle_motorcycle"/>
    <trip id="motorcycle180" depart="667.12" from="124861823#6" to="1238879358#3" departLane="best" type="motorcycle_motorcycle"/>
    <trip id="motorcycle181" depart="670.83" from="-1189813847" to="-788485782#4" departLane="best" type="motorcycle_motorcycle" departSpeed="max"/>
    <trip id="motorcycle182" depart="674.54" from="124861825#0" to="-1238879358#3" departLane="best" type="motorcycle_motorcycle"/>
    <trip id="motorcycle183" depart="678.24" from="-124861824#1" to="-1238879358#0" departLane="best" type="motorcycle_motorcycle"/>
    <trip id="motorcycle184" depart="681.95" from="-214085919#5" to="-665946598" departLane="best" type="motorcycle_motorcycle" departSpeed="max"/>
    <trip id="motorcycle185" depart="685.65" from="-665546552" to="-1265177027#0" departLane="best" type="motorcycle_motorcycle" departSpeed="max"/>
    <trip id="motorcycle186" depart="689.36" from="1126750041#0" to="-124861817#3" departLane="best" type="motorcycle_motorcycle"/>
    <trip id="motorcycle187" depart="693.07" from="1303443733" to="317349751#6" departLane="best" type="motorcycle_motorcycle" departSpeed="max"/>
    <trip id="motorcycle188" depart="696.77" from="-320394882" to="608078456" departLane="best" type="motorcycle_motorcycle"/>
    <trip id="motorcycle189" depart="700.48" from="124858284#9" to="1177177536#1" departLane="best" type="motorcycle_motorcycle"/>
    <trip id="motorcycle190" depart="704.19" from="-220589506" to="124611611#4" departLane="best" type="motorcycle_motorcycle"/>
    <trip id="motorcycle191" depart="707.89" from="124611617#2" to="1091258062" departLane="best" type="motorcycle_motorcycle"/>
    <trip id="motorcycle192" depart="711.60" from="317349751#0" to="665946598" departLane="best" type="motorcycle_motorcycle"/>
    <trip id="motorcycle193" depart="715.30" from="1107662879" to="1187806250" departLane="best" type="motorcycle_motorcycle"/>
    <trip id="motorcycle194" depart="719.01" from="632266777#0" to="1265177026#0" departLane="best" type="motorcycle_motorcycle"/>
    <trip id="motorcycle195" depart="722.72" from="-124861817#5" to="1187806250" departLane="best" type="motorcycle_motorcycle" departSpeed="max"/>
    <trip id="motorcycle196" depart="726.42" from="725363522#0" to="-124861825#0" departLane="best" type="motorcycle_motorcycle"/>
    <trip id="motorcycle197" depart="730.13" from="-1192260787" to="-214670750" departLane="best" type="motorcycle_motorcycle" departSpeed="max"/>
    <trip id="motorcycle198" depart="733.84" from="-124861825#3" to="-124861803#3" departLane="best" type="motorcycle_motorcycle"/>
    <trip id="motorcycle199" depart="737.54" from="-1192260787" to="317349751#4" departLane="best" type="motorcycle_motorcycle" departSpeed="max"/>
    <trip id="motorcycle200" depart="741.25" from="-214085908#1" to="124861825#3" departLane="best" type="motorcycle_motorcycle" departSpeed="max"/>
    <trip id="motorcycle201" depart="744.95" from="-665670054" to="1238879358#5" departLane="best" type="motorcycle_motorcycle" departSpeed="max"/>
    <trip id="motorcycle202" depart="748.66" from="-608078456" to="-1238879358#6" departLane="best" type="motorcycle_motorcycle" departSpeed="max"/>
    <trip id="motorcycle203" depart="752.37" from="214085919#0" to="1274598669#0" departLane="best" type="motorcycle_motorcycle"/>
    <trip id="motorcycle204" depart="756.07" from="725363522#1" to="1265177027#1" departLane="best" type="motorcycle_motorcycle"/>
    <trip id="motorcycle205" depart="759.78" from="-124861823#2" to="124861802" departLane="best" type="motorcycle_motorcycle"/>
    <trip id="motorcycle206" depart="763.49" from="124861809#1" to="-22842320#1" departLane="best" type="motorcycle_motorcycle"/>
    <trip id="motorcycle207" depart="767.19" from="-124861817#3" to="-1238879358#5" departLane="best" type="motorcycle_motorcycle"/>
    <trip id="motorcycle208" depart="770.90" from="317349751#3" to="-788485782#0" departLane="best" type="motorcycle_motorcycle"/>
    <trip id="motorcycle209" depart="774.60" from="-214085922#0" to="-22842320#1" departLane="best" type="motorcycle_motorcycle"/>