<?xml version="1.0" encoding="UTF-8"?>

<!-- generated on 2025-09-21 22:06:52.601045 by osmWebWizard.py UNKNOWN
<configuration>
    <net-file value="/home/vishwajit/Workspace/SIH2025/FDRL/sumo_files/2025-09-21-22-06-32/osm.net.xml.gz"/>
    <output-trip-file value="/home/vishwajit/Workspace/SIH2025/FDRL/sumo_files/2025-09-21-22-06-32/osm.motorcycle.trips.xml"/>
    <route-file value="/home/vishwajit/Workspace/SIH2025/FDRL/sumo_files/2025-09-21-22-06-32/osm.motorcycle.rou.xml"/>
    <prefix value="motorcycle"/>
    <trip-attributes value="departLane=&quot;best&quot;"/>
    <fringe-start-attributes value="departSpeed=&quot;max&quot;"/>
    <vehicle-class value="motorcycle"/>
    <fringe-factor value="2"/>
    <edge-permission value="motorcycle"/>
    <via-edge-types value="highway.motorway,highway.motorway_link,highway.trunk_link,highway.primary_link,highway.secondary_link,highway.tertiary_link"/>
    <seed value="43"/>
    <max-distance value="1200.0"/>
    <remove-loops value="True"/>
    <insertion-density value="20.0"/>
</configuration>
-->

<routes xmlns:xsi="http://www.w3.org/2001/XMLSchema-instance" xsi:noNamespaceSchemaLocation="http://sumo.dlr.de/xsd/routes_file.xsd">
    <vType id="motorcycle_motorcycle" vClass="motorcycle"/>
    <trip id="motorcycle0" depart="0.00" from="-1052758758#0" to="267542609#1" departLane="best" type="motorcycle_motorcycle"/>
    <trip id="motorcycle1" depart="4.76" from="-147657122#4" to="1098856683#3" departLane="best" type="motorcycle_motorcycle"/>
    <trip id="motorcycle2" depart="9.53" from="238682696#2" to="373389574#5" departLane="best" type="motorcycle_motorcycle"/>
    <trip id="motorcycle3" depart="14.29" from="1098856696" to="1133992724#0" departLane="best" type="motorcycle_motorcycle"/>
    <trip id="motorcycle4" depart="19.06" from="-1052675176#3" to="1052675227#3" departLane="best" type="motorcycle_motorcycle"/>
    <trip id="motorcycle5" depart="23.82" from="1141076640#1" to="320894149#2" departLane="best" type="motorcycle_motorcycle"/>
    <trip id="motorcycle6" depart="28.59" from="1052757284#0" to="-184077630#12" departLane="best" type="motorcycle_motorcycle"/>
    <trip id="motorcycle7" depart="33.35" from="4610355#12" to="4606213" departLane="best" type="motorcycle_motorcycle"/>
    <trip id="motorcycle8" depart="38.12" from="-8149654#7" to="-1140689523#2" departLane="best" type="motorcycle_motorcycle"/>
    <trip id="motorcycle9" depart="42.88" from="1133992729#4" to="1133992722" departLane="best" type="motorcycle_motorcycle"/>
    <trip id="motorcycle10" depart="47.65" from="34580834#2" to="1414464698" departLane="best" type="motorcycle_motorcycle"/>
    <trip id="motorcycle11" depart="52.41" from="1133992728" to="131650082#1" departLane="best" type="motorcycle_motorcycle"/>
    <trip id="motorcycle12" depart="57.18" from="-8149654#8" to="-1095407474#2" departLane="best" type="motorcycle_motorcycle"/>
    <trip id="motorcycle13" depart="61.94" from="-1122497068" to="717177007#4" departLane="best" type="motorcycle_motorcycle"/>
    <trip id="motorcycle14" depart="66.70" from="4606263#0" to="-4296469#2" departLane="best" type="motorcycle_motorcycle"/>
    <trip id="motorcycle15" depart="71.47" from="4613300#5" to="1138696720#0" departLane="best" type="motorcycle_motorcycle"/>
    <trip id="motorcycle16" depart="76.23" from="-1157111072" to="4610356" departLane="best" type="motorcycle_motorcycle" departSpeed="max"/>
    <trip id="motorcycle17" depart="81.00" from="1344278031#1" to="717177006#2" departLane="best" type="motorcycle_motorcycle"/>
    <trip id="motorcycle18" depart="85.76" from="24241790" to="-1140689523#0" departLane="best" type="motorcycle_motorcycle"/>
    <trip id="motorcycle19" depart="90.53" from="173197451#1" to="371927739#3" departLane="best" type="motorcycle_motorcycle"/>
    <trip id="motorcycle20" depart="95.29" from="4615003#5" to="-4613300#5" departLane="best" type="motorcycle_motorcycle"/>
    <trip id="motorcycle21" depart="100.06" from="1139102389" to="267542610#0" departLane="best" type="motorcycle_motorcycle"/>
    <trip id="motorcycle22" depart="104.82" from="36689634#0" to="-1095407474#3" departLane="best" type="motorcycle_motorcycle"/>
    <trip id="motorcycle23" depart="109.59" from="-184430983#3" to="147657122#3" departLane="best" type="motorcycle_motorcycle" departSpeed="max"/>
    <trip id="motorcycle24" depart="114.35" from="8149654#2" to="1151940481#0" departLane="best" type="motorcycle_motorcycle"/>
    <trip id="motorcycle25" depart="119.11" from="-1199349086" to="1133761627" departLane="best" type="motorcycle_motorcycle"/>
    <trip id="motorcycle26" depart="123.88" from="34580834#8" to="73310499" departLane="best" type="motorcycle_motorcycle"/>
    <trip id="motorcycle27" depart="128.64" from="297373653#10" to="-1052757284#1" departLane="best" type="motorcycle_motorcycle"/>
    <trip id="motorcycle28" depart="133.41" from="8149654#12" to="147657122#0" departLane="best" type="motorcycle_motorcycle"/>
    <trip id="motorcycle29" depart="138.17" from="-1140689523#0" to="-1316026644" departLane="best" type="motorcycle_motorcycle"/>
    <trip id="motorcycle30" depart="142.94" from="-1140760605#1" to="23294727#0" departLane="best" type="motorcycle_motorcycle"/>
    <trip id="motorcycle31" depart="147.70" from="-16571799#6" to="4296469#0" departLane="best" type="motorcycle_motorcycle"/>
    <trip id="motorcycle32" depart="152.47" from="-1158223859#0" to="1140689523#2" departLane="best" type="motorcycle_motorcycle"/>
    <trip id="motorcycle33" depart="157.23" from="1095165548#0" to="-1052756578#1" departLane="best" type="motorcycle_motorcycle"/>
    <trip id="motorcycle34" depart="162.00" from="83146232#0" to="-1225924290" departLane="best" type="motorcycle_motorcycle"/>
    <trip id="motorcycle35" depart="166.76" from="312651884#2" to="896703364" departLane="best" type="motorcycle_motorcycle"/>
    <trip id="motorcycle36" depart="171.53" from="4790879#0" to="4613300#3" departLane="best" type="motorcycle_motorcycle"/>
    <trip id="motorcycle37" depart="176.29" from="-690429978#2" to="297373653#2" departLane="best" type="motorcycle_motorcycle"/>
    <trip id="motorcycle38" depart="181.05" from="1133992724#0" to="717177007#12" departLane="best" type="motorcycle_motorcycle"/>
    <trip id="motorcycle39" depart="185.82" from="4610355#8" to="-8149654#6" departLane="best" type="motorcycle_motorcycle"/>
    <trip id="motorcycle40" depart="190.58" from="-267542609#4" to="717177007#11" departLane="best" type="motorcycle_motorcycle"/>
    <trip id="motorcycle41" depart="195.35" from="1024034687#1" to="24914109" departLane="best" type="motorcycle_motorcycle"/>
    <trip id="motorcycle42" depart="200.11" from="1316026644" to="-34580834#13" departLane="best" type="motorcycle_motorcycle"/>
    <trip id="motorcycle43" depart="204.88" from="-184430983#3" to="-184077630#4" departLane="best" type="motorcycle_motorcycle" departSpeed="max"/>
    <trip id="motorcycle44" depart="209.64" from="4606218#1" to="268002748#3" departLane="best" type="motorcycle_motorcycle"/>
    <trip id="motorcycle45" depart="214.41" from="8149654#10" to="238682696#0" departLane="best" type="motorcycle_motorcycle"/>
    <trip id="motorcycle46" depart="219.17" from="-847103786#0" to="896703365" departLane="best" type="motorcycle_motorcycle"/>
    <trip id="motorcycle47" depart="223.94" from="-1122497068" to="-1052675227#2" departLane="best" type="motorcycle_motorcycle"/>
    <trip id="motorcycle48" depart="228.70" from="1141076640#0" to="16571799#2" departLane="best" type="motorcycle_motorcycle"/>
    <trip id="motorcycle49" depart="233.46" from="1133992729#12" to="59546763" departLane="best" type="motorcycle_motorcycle"/>
    <trip id="motorcycle50" depart="238.23" from="4613112" to="717741321#5" departLane="best" type="motorcycle_motorcycle" departSpeed="max"/>
    <trip id="motorcycle51" depart="242.99" from="131650082#1" to="-34580834#16" departLane="best" type="motorcycle_motorcycle"/>
    <trip id="motorcycle52" depart="247.76" from="-1413812166#4" to="34580834#11" departLane="best" type="motorcycle_motorcycle"/>
    <trip id="motorcycle53" depart="252.52" from="-16571799#8" to="-1024034687#0" departLane="best" type="motorcycle_motorcycle"/>
    <trip id="motorcycle54" depart="257.29" from="267542609#4" to="-1225924290" departLane="best" type="motorcycle_motorcycle"/>
    <trip id="motorcycle55" depart="262.05" from="173197451#0" to="-24241762#0" departLane="best" type="motorcycle_motorcycle"/>
    <trip id="motorcycle56" depart="266.82" from="1052675227#4" to="-1024034687#9" departLane="best" type="motorcycle_motorcycle"/>
    <trip id="motorcycle57" depart="271.58" from="-8149654#7" to="-4613300#2" departLane="best" type="motorcycle_motorcycle"/>
    <trip id="motorcycle58" depart="276.35" from="-36892597#2" to="-1408122424" departLane="best" type="motorcycle_motorcycle"/>
    <trip id="motorcycle59" depart="281.11" from="1316026644" to="24968394#4" departLane="best" type="motorcycle_motorcycle"/>
    <trip id="motorcycle60" depart="285.88" from="-24684997#0" to="-1052758514#1" departLane="best" type="motorcycle_motorcycle"/>
    <trip id="motorcycle61" depart="290.64" from="-373389574#0" to="267542609#5" departLane="best" type="motorcycle_motorcycle"/>
    <trip id="motorcycle62" depart="295.40" from="-373389574#4" to="184077630#8" departLane="best" type="motorcycle_motorcycle"/>
    <trip id="motorcycle63" depart="300.17" from="-1133992729#6" to="268002743#0" departLane="best" type="motorcycle_motorcycle"/>
    <trip id="motorcycle64" depart="304.93" from="-147657122#3" to="-268002748#4" departLane="best" type="motorcycle_motorcycle"/>
    <trip id="motorcycle65" depart="309.70" from="309655252" to="1101404336" departLane="best" type="motorcycle_motorcycle"/>
    <trip id="motorcycle66" depart="314.46" from="184077626#7" to="-376759635" departLane="best" type="motorcycle_motorcycle"/>
    <trip id="motorcycle67" depart="319.23" from="23852056#3" to="-454285423" departLane="best" type="motorcycle_motorcycle"/>
    <trip id="motorcycle68" depart="323.99" from="1105526087" to="1052758514#0" departLane="best" type="motorcycle_motorcycle"/>
    <trip id="motorcycle69" depart="328.76" from="49180827#7" to="319339413#4" departLane="best" type="motorcycle_motorcycle"/>
    <trip id="motorcycle70" depart="333.52" from="147657138#1" to="309300321" departLane="best" type="motorcycle_motorcycle"/>
    <trip id="motorcycle71" depart="338.29" from="1133992733" to="131650082#1" departLane="best" type="motorcycle_motorcycle"/>
    <trip id="motorcycle72" depart="343.05" from="-297373653#1" to="713576590#3" departLane="best" type="motorcycle_motorcycle"/>
    <trip id="motorcycle73" depart="347.81" from="147657122#3" to="-1052675177#2" departLane="best" type="motorcycle_motorcycle"/>
    <trip id="motorcycle74" depart="352.58" from="-1157444126" to="4613299#4" departLane="best" type="motorcycle_motorcycle"/>
    <trip id="motorcycle75" depart="357.34" from="46138135#1" to="-297373653#14" departLane="best" type="motorcycle_motorcycle"/>
    <trip id="motorcycle76" depart="362.11" from="850240180#1" to="153689810#0" departLane="best" type="motorcycle_motorcycle"/>
    <trip id="motorcycle77" depart="366.87" from="-34580834#6" to="1105526086" departLane="best" type="motorcycle_motorcycle"/>
    <trip id="motorcycle78" depart="371.64" from="1100646994" to="-4296469#3" departLane="best" type="motorcycle_motorcycle" departSpeed="max"/>
    <trip id="motorcycle79" depart="376.40" from="-690429978#8" to="1052757284#1" departLane="best" type="motorcycle_motorcycle"/>
    <trip id="motorcycle80" depart="381.17" from="-371927739#1" to="-1413812166#2" departLane="best" type="motorcycle_motorcycle"/>
    <trip id="motorcycle81" depart="385.93" from="42348713#0" to="-717177007#0" departLane="best" type="motorcycle_motorcycle"/>
    <trip id="motorcycle82" depart="390.70" from="-80715076#1" to="369223461" departLane="best" type="motorcycle_motorcycle"/>
    <trip id="motorcycle83" depart="395.46" from="267542609#4" to="1052758759" departLane="best" type="motorcycle_motorcycle"/>
    <trip id="motorcycle84" depart="400.23" from="-4613299#2" to="390614076#0" departLane="best" type="motorcycle_motorcycle"/>
    <trip id="motorcycle85" depart="404.99" from="-320894149#2" to="1098856696" departLane="best" type="motorcycle_motorcycle"/>
    <trip id="motorcycle86" depart="409.75" from="-8149654#6" to="981295181" departLane="best" type="motorcycle_motorcycle"/>
    <trip id="motorcycle87" depart="414.52" from="-32320374#1" to="1413812166#2" departLane="best" type="motorcycle_motorcycle"/>
    <trip id="motorcycle88" depart="419.28" from="1138696726" to="-1095407474#2" departLane="best" type="motorcycle_motorcycle" departSpeed="max"/>
    <trip id="motorcycle89" depart="424.05" from="-184430983#0" to="4613300#4" departLane="best" type="motorcycle_motorcycle"/>
    <trip id="motorcycle90" depart="428.81" from="371927739#3" to="-267542609#4" departLane="best" type="motorcycle_motorcycle"/>
    <trip id="motorcycle91" depart="433.58" from="-184429424#3" to="717177007#14" departLane="best" type="motorcycle_motorcycle"/>
    <trip id="motorcycle92" depart="438.34" from="1396265336#1" to="297373653#15" departLane="best" type="motorcycle_motorcycle"/>
    <trip id="motorcycle93" depart="443.11" from="49180827#2" to="-34580834#14" departLane="best" type="motorcycle_motorcycle"/>
    <trip id="motorcycle94" depart="447.87" from="-201408461#1" to="-34580834#0" departLane="best" type="motorcycle_motorcycle"/>
    <trip id="motorcycle95" depart="452.64" from="4613299#1" to="4610354#3" departLane="best" type="motorcycle_motorcycle"/>
    <trip id="motorcycle96" depart="457.40" from="1133992730" to="-1408122424" departLane="best" type="motorcycle_motorcycle"/>
    <trip id="motorcycle97" depart="462.17" from="4606258#1" to="-4606258#0" departLane="best" type="motorcycle_motorcycle"/>
    <trip id="motorcycle98" depart="466.93" from="320894149#2" to="-34580834#0" departLane="best" type="motorcycle_motorcycle"/>
    <trip id="motorcycle99" depart="471.69" from="-16571799#6" to="24968394#4" departLane="best" type="motorcycle_motorcycle"/>
    <trip id="motorcycle100" depart="476.46" from="-981295182" to="-80715076#2" departLane="best" type="motorcycle_motorcycle"/>
    <trip id="motorcycle101" depart="481.22" from="1052758759" to="109819106#0" departLane="best" type="motorcycle_motorcycle"/>
    <trip id="motorcycle102" depart="485.99" from="1101405046#0" to="184077630#9" departLane="best" type="motorcycle_motorcycle"/>
    <trip id="motorcycle103" depart="490.75" from="-1157419571" to="24241762#0" departLane="best" type="motorcycle_motorcycle"/>
    <trip id="motorcycle104" depart="495.52" from="112128418#0" to="4484427#0" departLane="best" type="motorcycle_motorcycle" departSpeed="max"/>
    <trip id="motorcycle105" depart="500.28" from="-4606218#1" to="23852056#1" departLane="best" type="motorcycle_motorcycle"/>
    <trip id="motorcycle106" depart="505.05" from="-267542609#4" to="267542609#4" departLane="best" type="motorcycle_motorcycle"/>
    <trip id="motorcycle107" depart="509.81" from="24326506#4" to="1141076640#2" departLane="best" type="motorcycle_motorcycle"/>
    <trip id="motorcycle108" depart="514.58" from="1104460751#1" to="717741321#4" departLane="best" type="motorcycle_motorcycle"/>
    <trip id="motorcycle109" depart="519.34" from="-73310497#2" to="-1133992729#7" departLane="best" type="motorcycle_motorcycle"/>
    <trip id="motorcycle110" depart="524.10" from="-4615003#5" to="-1052758514#0" departLane="best" type="motorcycle_motorcycle"/>
    <trip id="motorcycle111" depart="528.87" from="4613300#7" to="4606263#1" departLane="best" type="motorcycle_motorcycle"/>
    <trip id="motorcycle112" depart="533.63" from="-184430983#3" to="182690326#5" departLane="best" type="motorcycle_motorcycle" departSpeed="max"/>
    <trip id="motorcycle113" depart="538.40" from="-267542609#2" to="4610356" departLane="best" type="motorcycle_motorcycle"/>
    <trip id="motorcycle114" depart="543.16" from="184077626#1" to="-1138696720#0" departLane="best" type="motorcycle_motorcycle"/>
    <trip id="motorcycle115" depart="547.93" from="46138135#2" to="713576590#0" departLane="best" type="motorcycle_motorcycle"/>
    <trip id="motorcycle116" depart="552.69" from="154046793" to="-312926086#1" departLane="best" type="motorcycle_motorcycle"/>
    <trip id="motorcycle117" depart="557.46" from="34580834#4" to="-1052756578#2" departLane="best" type="motorcycle_motorcycle"/>
    <trip id="motorcycle118" depart="562.22" from="-1158492673#2" to="-4606230#0" departLane="best" type="motorcycle_motorcycle"/>
    <trip id="motorcycle119" depart="566.99" from="-1133992729#4" to="4613296" departLane="best" type="motorcycle_motorcycle"/>
    <trip id="motorcycle120" depart="571.75" from="23852056#3" to="4296469#1" departLane="best" type="motorcycle_motorcycle"/>
    <trip id="motorcycle121" depart="576.52" from="-41927001#0" to="147657138#1" departLane="best" type="motorcycle_motorcycle"/>
    <trip id="motorcycle122" depart="581.28" from="373389574#1" to="180331460" departLane="best" type="motorcycle_motorcycle"/>
    <trip id="motorcycle123" depart="586.04" from="-4613300#7" to="41927001#1" departLane="best" type="motorcycle_motorcycle"/>
    <trip id="motorcycle124" depart="590.81" from="1024034687#7" to="182690326#5" departLane="best" type="motorcycle_motorcycle"/>
    <trip id="motorcycle125" depart="595.57" from="4610355#11" to="23294704" departLane="best" type="motorcycle_motorcycle"/>
    <trip id="motorcycle126" depart="600.34" from="1098856742" to="1410132675#0" departLane="best" type="motorcycle_motorcycle"/>
    <trip id="motorcycle127" depart="605.10" from="-267542609#1" to="1052675228" departLane="best" type="motorcycle_motorcycle"/>
    <trip id="motorcycle128" depart="609.87" from="-1052675176#0" to="44122832#1" departLane="best" type="motorcycle_motorcycle"/>
    <trip id="motorcycle129" depart="614.63" from="-16571799#8" to="-1052675228" departLane="best" type="motorcycle_motorcycle"/>
    <trip id="motorcycle130" depart="619.40" from="131650082#1" to="34580834#15" departLane="best" type="motorcycle_motorcycle"/>
    <trip id="motorcycle131" depart="624.16" from="-1182703456#2" to="1052758514#0" departLane="best" type="motorcycle_motorcycle"/>
    <trip id="motorcycle132" depart="628.93" from="1098856744" to="-1212138995#0" departLane="best" type="motorcycle_motorcycle"/>
    <trip id="motorcycle133" depart="633.69" from="182690326#4" to="-32320374#0" departLane="best" type="motorcycle_motorcycle"/>
    <trip id="motorcycle134" depart="638.45" from="25134073" to="1133992725#1" departLane="best" type="motorcycle_motorcycle" departSpeed="max"/>
    <trip id="motorcycle135" depart="643.22" from="34580834#0" to="-1024034687#5" departLane="best" type="motorcycle_motorcycle"/>
    <trip id="motorcycle136" depart="647.98" from="-4613299#4" to="-1141076639" departLane="best" type="motorcycle_motorcycle" departSpeed="max"/>
    <trip id="motorcycle137" depart="652.75" from="-1140689523#2" to="-1024034687#5" departLane="best" type="motorcycle_motorcycle"/>
    <trip id="motorcycle138" depart="657.51" from="1138687772#3" to="-1122497068" departLane="best" type="motorcycle_motorcycle"/>
    <trip id="motorcycle139" depart="662.28" from="-1212138995#0" to="1052675227#3" departLane="best" type="motorcycle_motorcycle"/>
    <trip id="motorcycle140" depart="667.04" from="24326506#2" to="-24241762#1" departLane="best" type="motorcycle_motorcycle"/>
    <trip id="motorcycle141" depart="671.81" from="184430983#1" to="1157111072" departLane="best" type="motorcycle_motorcycle"/>
    <trip id="motorcycle142" depart="676.57" from="690429978#8" to="4296469#3" departLane="best" type="motorcycle_motorcycle"/>
    <trip id="motorcycle143" depart="681.34" from="980371139#0" to="-699211935#1" departLane="best" type="motorcycle_motorcycle"/>
    <trip id="motorcycle144" depart="686.10" from="4613300#1" to="-4613298#1" departLane="best" type="motorcycle_motorcycle"/>
    <trip id="motorcycle145" depart="690.87" from="-4296469#2" to="1052675176#1" departLane="best" type="motorcycle_motorcycle"/>
    <trip id="motorcycle146" depart="695.63" from="-1140771901#2" to="154047192" departLane="best" type="motorcycle_motorcycle"/>
    <trip id="motorcycle147" depart="700.39" from="-1119855803#0" to="1052675176#3" departLane="best" type="motorcycle_motorcycle"/>
    <trip id="motorcycle148" depart="705.16" from="-34580834#3" to="717177007#9" departLane="best" type="motorcycle_motorcycle"/>
    <trip id="motorcycle149" depart="709.92" from="-4606263#0" to="-699211935#0" departLane="best" type="motorcycle_motorcycle"/>
    <trip id="motorcycle150" depart="714.69" from="-4613298#1" to="-1225924290" departLane="best" type="motorcycle_motorcycle"/>
    <trip id="motorcycle151" depart="719.45" from="184077630#12" to="-4606218#1" departLane="best" type="motorcycle_motorcycle"/>
    <trip id="motorcycle152" depart="724.22" from="-373389574#2" to="-4606258#4" departLane="best" type="motorcycle_motorcycle"/>
    <trip id="motorcycle153" depart="728.98" from="-717177007#15" to="373389574#5" departLane="best" type="motorcycle_motorcycle"/>
    <trip id="motorcycle154" depart="733.75" from="-297373653#11" to="-1212138995#1" departLane="best" type="motorcycle_motorcycle"/>
    <trip id="motorcycle155" depart="738.51" from="-4615003#5" to="1228800161" departLane="best" type="motorcycle_motorcycle"/>
    <trip id="motorcycle156" depart="743.28" from="-4296469#1" to="-1152640372#1" departLane="best" type="motorcycle_motorcycle"/>
    <trip id="motorcycle157" depart="748.04" from="-717177007#8" to="80715076#1" departLane="best" type="motorcycle_motorcycle"/>
    <trip id="motorcycle158" depart="752.80" from="4615003#0" to="1052758514#0" departLane="best" type="motorcycle_motorcycle"/>
    <trip id="motorcycle159" depart="757.57" from="1052756578#2" to="-184077630#10" departLane="best" type="motorcycle_motorcycle"/>
    <trip id="motorcycle160" depart="762.33" from="238682696#2" to="297373653#8" departLane="best" type="motorcycle_motorcycle"/>
    <trip id="motorcycle161" depart="767.10" from="-34580834#8" to="182690326#1" departLane="best" type="motorcycle_motorcycle"/>
    <trip id="motorcycle162" depart="771.86" from="-1157111072" to="-4606263#0" departLane="best" type="motorcycle_motorcycle" departSpeed="max"/>
    <trip id="motorcycle163" depart="776.63" from="-4606218#2" to="390614076#3" departLane="best" type="motorcycle_motorcycle"/>
    <trip id="motorcycle164" depart="781.39" from="16571799#5" to="1133992729#3" departLane="best" type="motorcycle_motorcycle"/>
    <trip id="motorcycle165" depart="786.16" from="1052758758#1" to="1151940481#0" departLane="best" type="motorcycle_motorcycle"/>
    <trip id="motorcycle166" depart="790.92" from="1119855803#1" to="-34580834#11" departLane="best" type="motorcycle_motorcycle"/>
    <trip id="motorcycle167" depart="795.69" from="4606258#0" to="390614076#3" departLane="best" type="motorcycle_motorcycle" departSpeed="max"/>
    <trip id="motorcycle168" depart="800.45" from="-881921235#1" to="-981295181" departLane="best" type="motorcycle_motorcycle"/>
    <trip id="motorcycle169" depart="805.22" from="699211935#0" to="-1052675176#2" departLane="best" type="motorcycle_motorcycle"/>
    <trip id="motorcycle170" depart="809.98" from="34580834#11" to="-182690326#1" departLane="best" type="motorcycle_motorcycle"/>
    <trip id="motorcycle171" depart="814.74" from="-22773266#1" to="-690429978#0" departLane="best" type="motorcycle_motorcycle"/>
    <trip id="motorcycle172" depart="819.51" from="173197451#2" to="-4613298#0" departLane="best" type="motorcycle_motorcycle"/>
    <trip id="motorcycle173" depart="824.27" from="1133992733" to="1133992729#4" departLane="best" type="motorcycle_motorcycle"/>
    <trip id="motorcycle174" depart="829.04" from="690429978#2" to="1323456348#4" departLane="best" type="motorcycle_motorcycle"/>
    <trip id="motorcycle175" depart="833.80" from="-373389574#2" to="184077626#2" departLane="best" type="motorcycle_motorcycle"/>
    <trip id="motorcycle176" depart="838.57" from="1150954111#1" to="-4606218#2" departLane="best" type="motorcycle_motorcycle"/>
    <trip id="motorcycle177" depart="843.33" from="297373653#5" to="-1024034687#2" departLane="best" type="motorcycle_motorcycle"/>
    <trip id="motorcycle178" depart="848.10" from="881921235#1" to="4613296" departLane="best" type="motorcycle_motorcycle"/>
    <trip id="motorcycle179" depart="852.86" from="-1119855803#1" to="297373653#10" departLane="best" type="motorcycle_motorcycle"/>
    <trip id="motorcycle180" depart="857.63" from="-1413812166#4" to="980371139#0" departLane="best" type="motorcycle_motorcycle"/>
    <trip id="motorcycle181" depart="862.39" from="1098856696" to="31619761#1" departLane="best" type="motorcycle_motorcycle"/>
    <trip id="motorcycle182" depart="867.16" from="-34580834#6" to="184430983#1" departLane="best" type="motorcycle_motorcycle"/>
    <trip id="motorcycle183" depart="871.92" from="-1052675227#6" to="41926994" departLane="best" type="motorcycle_motorcycle"/>
    <trip id="motorcycle184" depart="876.68" from="-371927739#1" to="-182690326#6" departLane="best" type="motorcycle_motorcycle"/>
    <trip id="motorcycle185" depart="881.45" from="1094434971" to="1133992724#4" departLane="best" type="motorcycle_motorcycle"/>
    <trip id="motorcycle186" depart="886.21" from="-1095407474#3" to="-180331460" departLane="best" type="motorcycle_motorcycle"/>
    <trip id="motorcycle187" depart="890.98" from="-83146232#3" to="1141076640#2" departLane="best" type="motorcycle_motorcycle"/>
    <trip id="motorcycle188" depart="895.74" from="454285423" to="-717177007#1" departLane="best" type="motorcycle_motorcycle" departSpeed="max"/>
    <trip id="motorcycle189" depart="900.51" from="980371139#0" to="-73310501#2" departLane="best" type="motorcycle_motorcycle"/>
    <trip id="motorcycle190" depart="905.27" from="-1139102398#3" to="699211935#2" departLane="best" type="motorcycle_motorcycle"/>
    <trip id="motorcycle191" depart="910.04" from="-44427221#1" to="-34580834#9" departLane="best" type="motorcycle_motorcycle"/>
    <trip id="motorcycle192" depart="914.80" from="-981295183#1" to="182690326#1" departLane="best" type="motorcycle_motorcycle"/>
    <trip id="motorcycle193" depart="919.57" from="1098856715" to="267542609#4" departLane="best" type="motorcycle_motorcycle"/>
    <trip id="motorcycle194" depart="924.33" from="896703364" to="1410132675#0" departLane="best" type="motorcycle_motorcycle"/>
    <trip id="motorcycle195" depart="929.09" from="390614076#4" to="717741321#6" departLane="best" type="motorcycle_motorcycle"/>
    <trip id="motorcycle196" depart="933.86" from="8149654#6" to="-493008124#0" departLane="best" type="motorcycle_motorcycle"/>
    <trip id="motorcycle197" depart="938.62" from="4606258#5" to="267542609#2" departLane="best" type="motorcycle_motorcycle"/>
    <trip id="motorcycle198" depart="943.39" from="4615003#3" to="4615003#5" departLane="best" type="motorcycle_motorcycle"/>
    <trip id="motorcycle199" depart="948.15" from="-690429978#0" to="31145647#1" departLane="best" type="motorcycle_motorcycle"/>
    <trip id="motorcycle200" depart="952.92" from="4606218#2" to="1052758514#0" departLane="best" type="motorcycle_motorcycle"/>
    <trip id="motorcycle201" depart="957.68" from="184077626#5" to="-8149654#12" departLane="best" type="motorcycle_motorcycle"/>
    <trip id="motorcycle202" depart="962.45" from="690429978#2" to="1139102389" departLane="best" type="motorcycle_motorcycle"/>
    <trip id="motorcycle203" depart="967.21" from="-32858408#0" to="1052675176#5" departLane="best" type="motorcycle_motorcycle"/>
    <trip id="motorcycle204" depart="971.98" from="1396265336#0" to="-80715076#2" departLane="best" type="motorcycle_motorcycle"/>
    <trip id="motorcycle205" depart="976.74" from="-4615003#2" to="182690326#6" departLane="best" type="motorcycle_motorcycle"/>
    <trip id="motorcycle206" depart="981.51" from="-4613300#5" to="1105526087" departLane="best" type="motorcycle_motorcycle"/>
    <trip id="motorcycle207" depart="986.27" from="-1140689523#0" to="-4613293#0" departLane="best" type="motorcycle_motorcycle"/>
    <trip id="motorcycle208" depart="991.03" from="-1212138995#0" to="1104460750" departLane="best" type="motorcycle_motorcycle"/>
    <trip id="motorcycle209" depart="995.80" from="-4615003#0" to="-8149654#0" departLane="best" type="motorcycle_motorcycle"/>
    <trip id="motorcycle210" depart="1000.56" from="-1052675228" to="896703365" departLane="best" type="motorcycle_motorcycle"/>
    <trip id="motorcycle211" depart="1005.33" from="-268002748#2" to="-1024034687#3" departLane="best" type="motorcycle_motorcycle"/>
    <trip id="motorcycle212" depart="1010.09" from="1344278031#1" to="-1052756578#1" departLane="best" type="motorcycle_motorcycle"/>
    <trip id="motorcycle213" depart="1014.86" from="1219532923" to="493008124#1" departLane="best" type="motorcycle_motorcycle"/>
    <trip id="motorcycle214" depart="1019.62" from="-110464119" to="1101404336" departLane="best" type="motorcycle_motorcycle" departSpeed="max"/>
    <trip id="motorcycle215" depart="1024.39" from="4606258#3" to="-297373653#8" departLane="best" type="motorcycle_motorcycle"/>
    <trip id="motorcycle216" depart="1029.15" from="26652030#0" to="34580834#10" departLane="best" type="motorcycle_motorcycle"/>
    <trip id="motorcycle217" depart="1033.92" from="1052675227#5" to="-493008124#0" departLane="best" type="motorcycle_motorcycle"/>
    <trip id="motorcycle218" depart="1038.68" from="847103786#3" to="-320894149#0" departLane="best" type="motorcycle_motorcycle"/>
    <trip id="motorcycle219" depart="1043.44" from="390614076#4" to="4296469#1" departLane="best" type="motorcycle_motorcycle"/>