<?xml version="1.0" encoding="UTF-8"?>

<!-- generated on 2025-09-21 22:06:48.791651 by $Id: ptlines2flows.py v1_3_1+0313-ccb31df3eb jakob.erdmann@dlr.de 2019-09-02 13:26:32 +0200 $ UNKNOWN
<configuration>
    <net-file value="/home/vishwajit/Workspace/SIH2025/FDRL/sumo_files/2025-09-21-22-06-32/osm.net.xml.gz"/>
    <ptlines-file value="/home/vishwajit/Workspace/SIH2025/FDRL/sumo_files/2025-09-21-22-06-32/osm_ptlines.xml"/>
    <ptstops-file value="/home/vishwajit/Workspace/SIH2025/FDRL/sumo_files/2025-09-21-22-06-32/osm_stops.add.xml"/>
    <output-file value="/home/vishwajit/Workspace/SIH2025/FDRL/sumo_files/2025-09-21-22-06-32/osm_pt.rou.xml"/>
    <stopinfos-file value="/home/vishwajit/Workspace/SIH2025/FDRL/sumo_files/2025-09-21-22-06-32/stopinfos.xml"/>
    <routes-file value="/home/vishwajit/Workspace/SIH2025/FDRL/sumo_files/2025-09-21-22-06-32/vehroutes.xml"/>
    <trips-file value="/home/vishwajit/Workspace/SIH2025/FDRL/sumo_files/2025-09-21-22-06-32/trips.trips.xml"/>
    <min-stops value="0"/>
    <extend-to-fringe value="True"/>
    <random-begin value="True"/>
    <seed value="42"/>
    <ignore-errors value="True"/>
    <vtype-prefix value="pt_"/>
    <verbose value="True"/>
</configuration>
-->

<routes xmlns:xsi="http://www.w3.org/2001/XMLSchema-instance" xsi:noNamespaceSchemaLocation="http://sumo.dlr.de/xsd/routes_file.xsd">
    <vType id="pt_bus" vClass="bus" speedFactor="0.95"/>
    <vType id="pt_tram" vClass="tram" speedFactor="1.0"/>
    <vType id="pt_train" vClass="rail"/>
    <vType id="pt_subway" vClass="subway"/>
    <vType id="pt_light_rail" vClass="rail_urban"/>
    <vType id="pt_monorail" vClass="rail_urban"/>
    <vType id="pt_trolleybus" vClass="bus" speedFactor="0.95"/>
    <vType id="pt_minibus" vClass="bus" speedFactor="0.95"/>
    <vType id="pt_share_taxi" vClass="taxi" speedFactor="0.95"/>
    <vType id="pt_aerialway" vClass="cable_car" length="2.5" width="2" personCapacity="4"/>
    <vType id="pt_ferry" vClass="ship"/>
    <trip id="0_bus_200:0" type="pt_bus" depart="15.0" departLane="best" from="4613112" to="24914141#1">
        <stop busStop="270720402" duration="30"/>  <!-- Mollstraße/Prenzlauer Allee -->
    </trip>
    <trip id="1_bus_200:1" type="pt_bus" depart="17.0" departLane="best" from="112128418#0" to="295445243">
        <stop busStop="3254638244" duration="30"/>  <!-- Mollstraße/Prenzlauer Allee -->
    </trip>
    <trip id="2_bus_142:0" type="pt_bus" depart="52.0" departLane="best" from="4613112" to="-73310501#2">
        <stop busStop="3918673868" duration="30"/>  <!-- Mollstraße/Prenzlauer Allee -->
        <stop busStop="3918673892" duration="30"/>  <!-- U Rosa-Luxemburg-Platz -->
        <stop busStop="3918673894" duration="30"/>  <!-- U Rosenthaler Platz -->
    </trip>
    <trip id="3_bus_142:1" type="pt_bus" depart="133.0" departLane="best" from="73310501#0" to="295445243">
        <stop busStop="3918673893" duration="30"/>  <!-- U Rosenthaler Platz -->
        <stop busStop="3918673891" duration="30"/>  <!-- U Rosa-Luxemburg-Platz -->
        <stop busStop="3254638244" duration="30"/>  <!-- Mollstraße/Prenzlauer Allee -->
    </trip>
</routes>
