<?xml version="1.0" encoding="UTF-8"?>

<!-- generated on 2025-09-21 13:29:19.638207 by osmWebWizard.py UNKNOWN
<configuration>
    <net-file value="/home/vishwajit/Workspace/SIH2025/FDRL/sumo_files/2025-09-21-13-29-13/osm.net.xml.gz"/>
    <output-trip-file value="/home/vishwajit/Workspace/SIH2025/FDRL/sumo_files/2025-09-21-13-29-13/osm.passenger.trips.xml"/>
    <route-file value="/home/vishwajit/Workspace/SIH2025/FDRL/sumo_files/2025-09-21-13-29-13/osm.passenger.rou.xml"/>
    <prefix value="veh"/>
    <trip-attributes value="departLane=&quot;best&quot;"/>
    <fringe-start-attributes value="departSpeed=&quot;max&quot;"/>
    <vehicle-class value="passenger"/>
    <lanes value="True"/>
    <fringe-factor value="5"/>
    <allow-fringe.min-length value="1000.0"/>
    <edge-permission value="passenger"/>
    <via-edge-types value="highway.motorway,highway.motorway_link,highway.trunk_link,highway.primary_link,highway.secondary_link,highway.tertiary_link"/>
    <seed value="44"/>
    <min-distance value="300.0"/>
    <min-distance.fringe value="10.0"/>
    <remove-loops value="True"/>
    <insertion-density value="50.0"/>
</configuration>
-->

<routes xmlns:xsi="http://www.w3.org/2001/XMLSchema-instance" xsi:noNamespaceSchemaLocation="http://sumo.dlr.de/xsd/routes_file.xsd">
    <vType id="veh_passenger" vClass="passenger"/>
    <trip id="veh0" depart="0.00" from="-124861823#1" to="-1238879358#4" departLane="best" type="veh_passenger"/>
    <trip id="veh1" depart="2.96" from="-1238879358#4" to="-1126750042" departLane="best" type="veh_passenger"/>
    <trip id="veh2" depart="5.93" from="124861814" to="-725293625#0" departLane="best" type="veh_passenger" departSpeed="max"/>
    <trip id="veh3" depart="8.89" from="725363522#0" to="-124861812#1" departLane="best" type="veh_passenger"/>
    <trip id="veh4" depart="11.86" from="124858284#2" to="725363523#3" departLane="best" type="veh_passenger"/>
    <trip id="veh5" depart="14.82" from="-1126750041#1" to="1121687687" departLane="best" type="veh_passenger" departSpeed="max"/>
    <trip id="veh6" depart="17.79" from="124861812#0" to="22842320#1" departLane="best" type="veh_passenger" departSpeed="max"/>
    <trip id="veh7" depart="20.75" from="124861821#2" to="214085908#1" departLane="best" type="veh_passenger"/>
    <trip id="veh8" depart="23.72" from="124861803#0" to="-725363522#0" departLane="best" type="veh_passenger" departSpeed="max"/>
    <trip id="veh9" depart="26.68" from="214085922#5" to="124861821#2" departLane="best" type="veh_passenger"/>
    <trip id="veh10" depart="29.65" from="1303443733" to="124861825#9" departLane="best" type="veh_passenger" departSpeed="max"/>
    <trip id="veh11" depart="32.61" from="-214085922#5" to="317349751#1" departLane="best" type="veh_passenger"/>
    <trip id="veh12" depart="35.58" from="-214085922#3" to="317349751#6" departLane="best" type="veh_passenger"/>
    <trip id="veh13" depart="38.54" from="-124861796#0" to="124861823#3" departLane="best" type="veh_passenger"/>
    <trip id="veh14" depart="41.51" from="214085949" to="124861817#5" departLane="best" type="veh_passenger"/>
    <trip id="veh15" depart="44.47" from="-1303633133" to="124861823#4" departLane="best" type="veh_passenger" departSpeed="max"/>
    <trip id="veh16" depart="47.44" from="124858284#2" to="-1303443733" departLane="best" type="veh_passenger"/>
    <trip id="veh17" depart="50.40" from="214085972" to="317349751#5" departLane="best" type="veh_passenger"/>
    <trip id="veh18" depart="53.37" from="-1265177027#2" to="725363522#1" departLane="best" type="veh_passenger"/>
    <trip id="veh19" depart="56.33" from="-124861825#6" to="-124858284#7" departLane="best" type="veh_passenger"/>
    <trip id="veh20" depart="59.30" from="-725293625#1" to="439133784#1" departLane="best" type="veh_passenger" departSpeed="max"/>
    <trip id="veh21" depart="62.26" from="-214085908#1" to="1126750041#1" departLane="best" type="veh_passenger" departSpeed="max"/>
    <trip id="veh22" depart="65.23" from="124861803#0" to="665546552" departLane="best" type="veh_passenger" departSpeed="max"/>
    <trip id="veh23" depart="68.19" from="-1189813847" to="608078458" departLane="best" type="veh_passenger" departSpeed="max"/>
    <trip id="veh24" depart="71.16" from="1265177027#0" to="-22842320#1" departLane="best" type="veh_passenger"/>
    <trip id="veh25" depart="74.12" from="-788485782#7" to="317349751#3" departLane="best" type="veh_passenger"/>
    <trip id="veh26" depart="77.09" from="-124861824#1" to="1274598669#1" departLane="best" type="veh_passenger"/>
    <trip id="veh27" depart="80.05" from="-1265177026#0" to="1171539007" departLane="best" type="veh_passenger"/>
    <trip id="veh28" depart="83.02" from="1238879358#4" to="1243425888" departLane="best" type="veh_passenger"/>
    <trip id="veh29" depart="85.98" from="-214085919#1" to="-725293625#0" departLane="best" type="veh_passenger"/>
    <trip id="veh30" depart="88.95" from="-665670054" to="632266777#1" departLane="best" type="veh_passenger" departSpeed="max"/>
    <trip id="veh31" depart="91.91" from="-1189813847" to="665546552" departLane="best" type="veh_passenger" departSpeed="max"/>
    <trip id="veh32" depart="94.88" from="151522859#0" to="1107662879" departLane="best" type="veh_passenger"/>
    <trip id="veh33" depart="97.84" from="725363523#0" to="214085913#1" departLane="best" type="veh_passenger"/>
    <trip id="veh34" depart="100.81" from="124861814" to="1177177536#1" departLane="best" type="veh_passenger" departSpeed="max"/>
    <trip id="veh35" depart="103.77" from="124861824#0" to="-1126750041#0" departLane="best" type="veh_passenger"/>
    <trip id="veh36" depart="106.74" from="-124861817#5" to="-124861823#3" departLane="best" type="veh_passenger" departSpeed="max"/>
    <trip id="veh37" depart="109.70" from="-124861803#3" to="-1238879358#0" departLane="best" type="veh_passenger"/>
    <trip id="veh38" depart="112.67" from="-1238879358#6" to="1121689775#1" departLane="best" type="veh_passenger"/>
    <trip id="veh39" depart="115.63" from="124861812#2" to="1265177027#0" departLane="best" type="veh_passenger"/>
    <trip id="veh40" depart="118.60" from="-214085919#4" to="124861812#1" departLane="best" type="veh_passenger"/>
    <trip id="veh41" depart="121.56" from="-214085919#1" to="124861824#0" departLane="best" type="veh_passenger"/>
    <trip id="veh42" depart="124.53" from="1338550400" to="-124861817#2" departLane="best" type="veh_passenger"/>
    <trip id="veh43" depart="127.49" from="317349751#0" to="317349751#4" departLane="best" type="veh_passenger"/>
    <trip id="veh44" depart="130.46" from="-124861825#0" to="-22842320#0" departLane="best" type="veh_passenger"/>
    <trip id="veh45" depart="133.42" from="124861803#3" to="-1265177026#0" departLane="best" type="veh_passenger"/>
    <trip id="veh46" depart="136.39" from="-124861796#0" to="1187806249" departLane="best" type="veh_passenger"/>
    <trip id="veh47" depart="139.35" from="1303443733" to="1265177027#0" departLane="best" type="veh_passenger" departSpeed="max"/>
    <trip id="veh48" depart="142.32" from="22842320#0" to="1192260787" departLane="best" type="veh_passenger" departSpeed="max"/>
    <trip id="veh49" depart="145.28" from="-124861823#1" to="1171540750" departLane="best" type="veh_passenger"/>
    <trip id="veh50" depart="148.25" from="-1126750041#1" to="-22842320#0" departLane="best" type="veh_passenger" departSpeed="max"/>
    <trip id="veh51" depart="151.21" from="-214085908#1" to="-1265177026#0" departLane="best" type="veh_passenger" departSpeed="max"/>
    <trip id="veh52" depart="154.18" from="-214085919#5" to="1303633133" departLane="best" type="veh_passenger" departSpeed="max"/>
    <trip id="veh53" depart="157.14" from="22842320#0" to="-788485782#0" departLane="best" type="veh_passenger" departSpeed="max"/>
    <trip id="veh54" depart="160.11" from="1238879358#0" to="-317349751#5" departLane="best" type="veh_passenger" departSpeed="max"/>
    <trip id="veh55" depart="163.07" from="124861803#0" to="214085919#5" departLane="best" type="veh_passenger" departSpeed="max"/>
    <trip id="veh56" depart="166.04" from="-214085922#3" to="124861825#10" departLane="best" type="veh_passenger"/>
    <trip id="veh57" depart="169.00" from="-124861825#5" to="608078456" departLane="best" type="veh_passenger"/>
    <trip id="veh58" depart="171.97" from="725363523#0" to="-124858284#1" departLane="best" type="veh_passenger"/>
    <trip id="veh59" depart="174.93" from="1171539005" to="317349751#6" departLane="best" type="veh_passenger" departSpeed="max"/>
    <trip id="veh60" depart="177.90" from="-214085919#5" to="-214085949" departLane="best" type="veh_passenger" departSpeed="max"/>
    <trip id="veh61" depart="180.86" from="-1126750041#1" to="-1177177536#0" departLane="best" type="veh_passenger" departSpeed="max"/>
    <trip id="veh62" depart="183.83" from="124861796#0" to="-124861817#1" departLane="best" type="veh_passenger"/>
    <trip id="veh63" depart="186.79" from="1338550400" to="214085922#6" departLane="best" type="veh_passenger"/>
    <trip id="veh64" depart="189.76" from="124858284#4" to="124861796#0" departLane="best" type="veh_passenger"/>
    <trip id="veh65" depart="192.72" from="-439133784#1" to="1265177027#1" departLane="best" type="veh_passenger" departSpeed="max"/>
    <trip id="veh66" depart="195.69" from="1238879358#0" to="124861825#5" departLane="best" type="veh_passenger" departSpeed="max"/>
    <trip id="veh67" depart="198.65" from="665546553" to="725363527#1" departLane="best" type="veh_passenger" departSpeed="max"/>
    <trip id="veh68" depart="201.62" from="-788485782#7" to="-124861817#0" departLane="best" type="veh_passenger"/>
    <trip id="veh69" depart="204.58" from="-1265177027#0" to="-214085956" departLane="best" type="veh_passenger"/>
    <trip id="veh70" depart="207.55" from="124861817#1" to="-1238879358#3" departLane="best" type="veh_passenger"/>
    <trip id="veh71" depart="210.51" from="-124861812#1" to="-1238879358#0" departLane="best" type="veh_passenger"/>
    <trip id="veh72" depart="213.48" from="124861817#1" to="1126750041#1" departLane="best" type="veh_passenger"/>
    <trip id="veh73" depart="216.44" from="-1091258063" to="-220589494#0" departLane="best" type="veh_passenger" departSpeed="max"/>
    <trip id="veh74" depart="219.41" from="-124861809#1" to="124858284#3" departLane="best" type="veh_passenger"/>
    <trip id="veh75" depart="222.37" from="-214085919#5" to="124861821#3" departLane="best" type="veh_passenger" departSpeed="max"/>
    <trip id="veh76" depart="225.34" from="124861825#8" to="1338550400" departLane="best" type="veh_passenger"/>
    <trip id="veh77" depart="228.30" from="-665670054" to="-214670750" departLane="best" type="veh_passenger" departSpeed="max"/>
    <trip id="veh78" depart="231.27" from="-214085919#5" to="-22842320#0" departLane="best" type="veh_passenger" departSpeed="max"/>
    <trip id="veh79" depart="234.23" from="1265177027#3" to="-214670750" departLane="best" type="veh_passenger"/>
    <trip id="veh80" depart="237.20" from="214085972" to="1303633133" departLane="best" type="veh_passenger"/>
    <trip id="veh81" depart="240.16" from="22842320#0" to="1189813847" departLane="best" type="veh_passenger" departSpeed="max"/>
    <trip id="veh82" depart="243.13" from="632266777#0" to="124858284#3" departLane="best" type="veh_passenger"/>
    <trip id="veh83" depart="246.09" from="1155741719" to="1126750041#1" departLane="best" type="veh_passenger"/>
    <trip id="veh84" depart="249.06" from="-1189813847" to="608078458" departLane="best" type="veh_passenger" departSpeed="max"/>
    <trip id="veh85" depart="252.02" from="-214085949" to="-1238879358#1" departLane="best" type="veh_passenger"/>
    <trip id="veh86" depart="254.99" from="-214085956" to="725293625#1" departLane="best" type="veh_passenger"/>
    <trip id="veh87" depart="257.95" from="1126750041#0" to="-1107662879" departLane="best" type="veh_passenger"/>
    <trip id="veh88" depart="260.92" from="-124861825#3" to="-1303443733" departLane="best" type="veh_passenger"/>
    <trip id="veh89" depart="263.88" from="124861802" to="1187806250" departLane="best" type="veh_passenger"/>
    <trip id="veh90" depart="266.85" from="-214085908#1" to="-1238879358#6" departLane="best" type="veh_passenger" departSpeed="max"/>
    <trip id="veh91" depart="269.81" from="-124858284#9" to="1171540750" departLane="best" type="veh_passenger"/>
    <trip id="veh92" depart="272.78" from="-1189813847" to="-439133784#0" departLane="best" type="veh_passenger" departSpeed="max"/>
    <trip id="veh93" depart="275.74" from="-317349751#6" to="214085919#5" departLane="best" type="veh_passenger" departSpeed="max"/>
    <trip id="veh94" depart="278.71" from="-1238879358#3" to="124861821#3" departLane="best" type="veh_passenger"/>
    <trip id="veh95" depart="281.67" from="124861812#2" to="-1303443733" departLane="best" type="veh_passenger"/>
    <trip id="veh96" depart="284.64" from="214085922#6" to="-1238879358#0" departLane="best" type="veh_passenger"/>
    <trip id="veh97" depart="287.60" from="-1303633133" to="1121689775#0" departLane="best" type="veh_passenger" departSpeed="max"/>
    <trip id="veh98" depart="290.57" from="1187808932" to="-214670750" departLane="best" type="veh_passenger" departSpeed="max"/>
    <trip id="veh99" depart="293.53" from="-124858284#7" to="1187806250" departLane="best" type="veh_passenger"/>
    <trip id="veh100" depart="296.50" from="-1238879358#4" to="665670054" departLane="best" type="veh_passenger"/>
    <trip id="veh101" depart="299.46" from="-1189813847" to="1265177027#2" departLane="best" type="veh_passenger" departSpeed="max"/>
    <trip id="veh102" depart="302.43" from="-1177177536#1" to="-124861823#1" departLane="best" type="veh_passenger" departSpeed="max"/>
    <trip id="veh103" depart="305.39" from="-124861825#2" to="-1177177536#0" departLane="best" type="veh_passenger"/>
    <trip id="veh104" depart="308.36" from="-214085922#4" to="-124858284#3" departLane="best" type="veh_passenger"/>
    <trip id="veh105" depart="311.32" from="665546553" to="1238879358#3" departLane="best" type="veh_passenger" departSpeed="max"/>
    <trip id="veh106" depart="314.29" from="-1126750041#1" to="214085919#3" departLane="best" type="veh_passenger" departSpeed="max"/>
    <trip id="veh107" depart="317.25" from="-1126750041#1" to="-124861817#4" departLane="best" type="veh_passenger" departSpeed="max"/>
    <trip id="veh108" depart="320.22" from="665546553" to="725363523#1" departLane="best" type="veh_passenger" departSpeed="max"/>
    <trip id="veh109" depart="323.18" from="214670750" to="1265177026#1" departLane="best" type="veh_passenger" departSpeed="max"/>
    <trip id="veh110" depart="326.15" from="-1303633133" to="214085919#5" departLane="best" type="veh_passenger" departSpeed="max"/>
    <trip id="veh111" depart="329.11" from="-214085913#1" to="-788485782#0" departLane="best" type="veh_passenger"/>
    <trip id="veh112" depart="332.08" from="-124861825#8" to="-1238879358#5" departLane="best" type="veh_passenger"/>
    <trip id="veh113" depart="335.04" from="-1192260787" to="124861825#3" departLane="best" type="veh_passenger" departSpeed="max"/>
    <trip id="veh114" depart="338.01" from="124861812#0" to="124861824#2" departLane="best" type="veh_passenger" departSpeed="max"/>
    <trip id="veh115" depart="340.97" from="-439133784#1" to="124861809#0" departLane="best" type="veh_passenger" departSpeed="max"/>
    <trip id="veh116" depart="343.94" from="1303443733" to="788485782#1" departLane="best" type="veh_passenger" departSpeed="max"/>
    <trip id="veh117" depart="346.90" from="-317349751#1" to="214085919#3" departLane="best" type="veh_passenger"/>
    <trip id="veh118" depart="349.87" from="214085913#1" to="124858284#0" departLane="best" type="veh_passenger"/>
    <trip id="veh119" depart="352.83" from="124861824#3" to="214085919#1" departLane="best" type="veh_passenger"/>
    <trip id="veh120" depart="355.80" from="-124861817#3" to="-124861796#2" departLane="best" type="veh_passenger"/>
    <trip id="veh121" depart="358.76" from="-1243425888" to="1265177027#2" departLane="best" type="veh_passenger" departSpeed="max"/>
    <trip id="veh122" depart="361.73" from="-214085922#5" to="124861823#6" departLane="best" type="veh_passenger"/>
    <trip id="veh123" depart="364.69" from="124858284#1" to="-124861796#0" departLane="best" type="veh_passenger"/>
    <trip id="veh124" depart="367.66" from="-1238879358#1" to="317349751#6" departLane="best" type="veh_passenger"/>
    <trip id="veh125" depart="370.62" from="-124861825#5" to="665670054" departLane="best" type="veh_passenger"/>
    <trip id="veh126" depart="373.59" from="214085922#4" to="1171539007" departLane="best" type="veh_passenger"/>
    <trip id="veh127" depart="376.55" from="-1126750041#1" to="1338550401" departLane="best" type="veh_passenger" departSpeed="max"/>
    <trip id="veh128" depart="379.52" from="124861817#2" to="214085919#4" departLane="best" type="veh_passenger"/>
    <trip id="veh129" depart="382.48" from="1303443733" to="-214670750" departLane="best" type="veh_passenger" departSpeed="max"/>
    <trip id="veh130" depart="385.45" from="-124858284#4" to="124861817#5" departLane="best" type="veh_passenger"/>
    <trip id="veh131" depart="388.41" from="151522859#1" to="214085913#0" departLane="best" type="veh_passenger"/>
    <trip id="veh132" depart="391.38" from="124861824#2" to="1171539007" departLane="best" type="veh_passenger"/>
    <trip id="veh133" depart="394.34" from="124861823#0" to="632266777#1" departLane="best" type="veh_passenger"/>
    <trip id="veh134" depart="397.31" from="1187808932" to="1171539007" departLane="best" type="veh_passenger" departSpeed="max"/>
    <trip id="veh135" depart="400.27" from="320394882" to="124861817#5" departLane="best" type="veh_passenger"/>
    <trip id="veh136" depart="403.24" from="214085919#1" to="1155741719" departLane="best" type="veh_passenger"/>
    <trip id="veh137" depart="406.20" from="725363522#1" to="-124858284#3" departLane="best" type="veh_passenger"/>
    <trip id="veh138" depart="409.17" from="22842320#0" to="1187806250" departLane="best" type="veh_passenger" departSpeed="max"/>
    <trip id="veh139" depart="412.13" from="-124861823#7" to="124861825#9" departLane="best" type="veh_passenger"/>
    <trip id="veh140" depart="415.10" from="124861823#0" to="124861825#3" departLane="best" type="veh_passenger"/>
    <trip id="veh141" depart="418.06" from="-124611620" to="49591929" departLane="best" type="veh_passenger"/>
    <trip id="veh142" depart="421.03" from="-665670054" to="-124861817#1" departLane="best" type="veh_passenger" departSpeed="max"/>
    <trip id="veh143" depart="423.99" from="124861825#2" to="1274598669#0" departLane="best" type="veh_passenger"/>
    <trip id="veh144" depart="426.96" from="725363523#3" to="788485782#2" departLane="best" type="veh_passenger"/>
    <trip id="veh145" depart="429.92" from="-1189813847" to="-124858284#5" departLane="best" type="veh_passenger" departSpeed="max"/>
    <trip id="veh146" depart="432.89" from="214670750" to="-1265177026#1" departLane="best" type="veh_passenger" departSpeed="max"/>
    <trip id="veh147" depart="435.85" from="214085919#3" to="788485782#4" departLane="best" type="veh_passenger"/>
    <trip id="veh148" depart="438.82" from="-665546552" to="-124861809#0" departLane="best" type="veh_passenger" departSpeed="max"/>
    <trip id="veh149" depart="441.78" from="-1303633133" to="151522859#1" departLane="best" type="veh_passenger" departSpeed="max"/>
    <trip id="veh150" depart="444.75" from="-317349751#3" to="608078456" departLane="best" type="veh_passenger"/>
    <trip id="veh151" depart="447.71" from="214085922#2" to="-124861812#0" departLane="best" type="veh_passenger"/>
    <trip id="veh152" depart="450.68" from="725363527#0" to="1187806250" departLane="best" type="veh_passenger"/>
    <trip id="veh153" depart="453.64" from="-214085913#1" to="-124858284#9" departLane="best" type="veh_passenger"/>
    <trip id="veh154" depart="456.61" from="-1177177536#1" to="124861823#1" departLane="best" type="veh_passenger" departSpeed="max"/>
    <trip id="veh155" depart="459.57" from="-725293625#0" to="124861821#0" departLane="best" type="veh_passenger"/>
    <trip id="veh156" depart="462.54" from="124861814" to="788485782#6" departLane="best" type="veh_passenger" departSpeed="max"/>
    <trip id="veh157" depart="465.50" from="-317349751#6" to="214085922#0" departLane="best" type="veh_passenger" departSpeed="max"/>
    <trip id="veh158" depart="468.47" from="-214085919#5" to="725363522#0" departLane="best" type="veh_passenger" departSpeed="max"/>
    <trip id="veh159" depart="471.43" from="-124861823#7" to="-22842320#0" departLane="best" type="veh_passenger"/>
    <trip id="veh160" depart="474.40" from="-124858284#7" to="214085919#5" departLane="best" type="veh_passenger"/>
    <trip id="veh161" depart="477.36" from="-124861825#9" to="124861825#2" departLane="best" type="veh_passenger"/>
    <trip id="veh162" depart="480.33" from="-214085922#2" to="-1107662879" departLane="best" type="veh_passenger"/>
    <trip id="veh163" depart="483.29" from="124861796#1" to="124858284#2" departLane="best" type="veh_passenger"/>
    <trip id="veh164" depart="486.26" from="-1126750041#1" to="1189813847" departLane="best" type="veh_passenger" departSpeed="max"/>
    <trip id="veh165" depart="489.22" from="124858284#5" to="124861817#3" departLane="best" type="veh_passenger"/>
    <trip id="veh166" depart="492.19" from="-214085922#6" to="124861824#2" departLane="best" type="veh_passenger"/>
    <trip id="veh167" depart="495.15" from="-214085919#5" to="608078458" departLane="best" type="veh_passenger" departSpeed="max"/>
    <trip id="veh168" depart="498.12" from="-214085908#0" to="151522858" departLane="best" type="veh_passenger"/>
    <trip id="veh169" depart="501.08" from="1107662879" to="1243425888" departLane="best" type="veh_passenger"/>
    <trip id="veh170" depart="504.05" from="725363527#0" to="-788485782#0" departLane="best" type="veh_passenger"/>
    <trip id="veh171" depart="507.01" from="1107662879" to="-124861824#0" departLane="best" type="veh_passenger"/>
    <trip id="veh172" depart="509.98" from="1274598669#0" to="124861817#5" departLane="best" type="veh_passenger"/>
    <trip id="veh173" depart="512.94" from="-665546552" to="1238879358#6" departLane="best" type="veh_passenger" departSpeed="max"/>
    <trip id="veh174" depart="515.91" from="-317349751#4" to="-1265177026#1" departLane="best" type="veh_passenger"/>
    <trip id="veh175" depart="518.87" from="-1265177027#1" to="-1238879358#4" departLane="best" type="veh_passenger"/>
    <trip id="veh176" depart="521.84" from="-317349751#5" to="124861823#6" departLane="best" type="veh_passenger"/>
    <trip id="veh177" depart="524.80" from="1238879358#0" to="-725363522#0" departLane="best" type="veh_passenger" departSpeed="max"/>
    <trip id="veh178" depart="527.77" from="124861814" to="-124861825#3" departLane="best" type="veh_passenger" departSpeed="max"/>
    <trip id="veh179" depart="530.73" from="124861809#0" to="1126750041#1" departLane="best" type="veh_passenger"/>
    <trip id="veh180" depart="533.70" from="1265177026#1" to="320394882" departLane="best" type="veh_passenger"/>
    <trip id="veh181" depart="536.66" from="-665546552" to="-124861812#0" departLane="best" type="veh_passenger" departSpeed="max"/>
    <trip id="veh182" depart="539.63" from="124861803#0" to="-1126750042" departLane="best" type="veh_passenger" departSpeed="max"/>
    <trip id="veh183" depart="542.59" from="124861818#1" to="1192349845" departLane="best" type="veh_passenger"/>
    <trip id="veh184" depart="545.56" from="665946597#1" to="1177177536#0" departLane="best" type="veh_passenger"/>
    <trip id="veh185" depart="548.52" from="-1189813847" to="124858284#0" departLane="best" type="veh_passenger" departSpeed="max"/>
    <trip id="veh186" depart="551.49" from="124861803#0" to="-124861809#0" departLane="best" type="veh_passenger" departSpeed="max"/>
    <trip id="veh187" depart="554.45" from="-124858284#3" to="-665946598" departLane="best" type="veh_passenger"/>
    <trip id="veh188" depart="557.42" from="-1126750041#1" to="124861817#5" departLane="best" type="veh_passenger" departSpeed="max"/>
    <trip id="veh189" depart="560.38" from="124861812#1" to="-124861824#3" departLane="best" type="veh_passenger"/>
    <trip id="veh190" depart="563.35" from="124861825#2" to="151522858" departLane="best" type="veh_passenger"/>
    <trip id="veh191" depart="566.31" from="1177177536#0" to="1121687688" departLane="best" type="veh_passenger"/>
    <trip id="veh192" depart="569.28" from="665946597#0" to="-22842320#0" departLane="best" type="veh_passenger"/>
    <trip id="veh193" depart="572.24" from="-1177177536#1" to="632266777#1" departLane="best" type="veh_passenger" departSpeed="max"/>
    <trip id="veh194" depart="575.21" from="1265177027#2" to="-22842320#0" departLane="best" type="veh_passenger"/>
    <trip id="veh195" depart="578.17" from="1303443733" to="-124861812#0" departLane="best" type="veh_passenger" departSpeed="max"/>
    <trip id="veh196" depart="581.14" from="124861818#0" to="-317349751#5" departLane="best" type="veh_passenger"/>
    <trip id="veh197" depart="584.10" from="124861823#3" to="725363523#1" departLane="best" type="veh_passenger"/>
    <trip id="veh198" depart="587.07" from="-608078456" to="439133784#0" departLane="best" type="veh_passenger" departSpeed="max"/>
    <trip id="veh199" depart="590.03" from="317349751#1" to="-22842320#0" departLane="best" type="veh_passenger"/>
    <trip id="veh200" depart="593.00" from="-725293625#1" to="-317349751#2" departLane="best" type="veh_passenger" departSpeed="max"/>
    <trip id="veh201" depart="595.96" from="124861824#2" to="1171540750" departLane="best" type="veh_passenger"/>
    <trip id="veh202" depart="598.93" from="124861812#0" to="632266777#1" departLane="best" type="veh_passenger" departSpeed="max"/>
    <trip id="veh203" depart="601.89" from="124861823#6" to="317349751#6" departLane="best" type="veh_passenger"/>
    <trip id="veh204" depart="604.86" from="124861812#0" to="124858284#5" departLane="best" type="veh_passenger" departSpeed="max"/>
    <trip id="veh205" depart="607.82" from="-214085919#0" to="214085908#1" departLane="best" type="veh_passenger"/>
    <trip id="veh206" depart="610.79" from="-1177177536#1" to="1126750041#1" departLane="best" type="veh_passenger" departSpeed="max"/>
    <trip id="veh207" depart="613.75" from="725363524#0" to="-124861803#0" departLane="best" type="veh_passenger"/>
    <trip id="veh208" depart="616.72" from="666847499#0" to="220589497#2" departLane="best" type="veh_passenger" departSpeed="max"/>
    <trip id="veh209" depart="619.68" from="124861812#0" to="1192349845" departLane="best" type="veh_passenger" departSpeed="max"/>
    <trip id="veh210" depart="622.65" from="1238879358#0" to="-214085972" departLane="best" type="veh_passenger" departSpeed="max"/>
    <trip id="veh211" depart="625.61" from="124858284#3" to="608078458" departLane="best" type="veh_passenger"/>
    <trip id="veh212" depart="628.58" from="788485782#3" to="124861796#0" departLane="best" type="veh_passenger"/>
    <trip id="veh213" depart="631.54" from="-608078456" to="-124861803#2" departLane="best" type="veh_passenger" departSpeed="max"/>
    <trip id="veh214" depart="634.51" from="124858284#1" to="214085919#4" departLane="best" type="veh_passenger"/>
    <trip id="veh215" depart="637.47" from="632266777#1" to="608078458" departLane="best" type="veh_passenger"/>
    <trip id="veh216" depart="640.44" from="317349751#1" to="725363526#0" departLane="best" type="veh_passenger"/>
    <trip id="veh217" depart="643.40" from="632266777#1" to="1265177027#1" departLane="best" type="veh_passenger"/>
    <trip id="veh218" depart="646.37" from="665946597#2" to="1189813847" departLane="best" type="veh_passenger"/>
    <trip id="veh219" depart="649.33" from="124861825#3" to="214085922#4" departLane="best" type="veh_passenger"/>
    <trip id="veh220" depart="652.30" from="-317349751#6" to="-124861824#2" departLane="best" type="veh_passenger" departSpeed="max"/>
    <trip id="veh221" depart="655.26" from="665946598" to="-1265177026#1" departLane="best" type="veh_passenger"/>
    <trip id="veh222" depart="658.23" from="-124861803#2" to="1243425888" departLane="best" type="veh_passenger"/>
    <trip id="veh223" depart="661.19" from="124861812#2" to="-788485782#6" departLane="best" type="veh_passenger"/>
    <trip id="veh224" depart="664.16" from="-124861824#2" to="1265177027#3" departLane="best" type="veh_passenger"/>
    <trip id="veh225" depart="667.12" from="1303443733" to="317349751#4" departLane="best" type="veh_passenger" departSpeed="max"/>
    <trip id="veh226" depart="670.09" from="-1189813847" to="124858284#2" departLane="best" type="veh_passenger" departSpeed="max"/>
    <trip id="veh227" depart="673.05" from="-124861824#3" to="1187806249" departLane="best" type="veh_passenger"/>
    <trip id="veh228" depart="676.02" from="-124861823#1" to="-22842320#0" departLane="best" type="veh_passenger"/>
    <trip id="veh229" depart="678.98" from="-214085908#1" to="-214085913#0" departLane="best" type="veh_passenger" departSpeed="max"/>
    <trip id="veh230" depart="681.95" from="-725293625#1" to="665546552" departLane="best" type="veh_passenger" departSpeed="max"/>
    <trip id="veh231" depart="684.91" from="-1126750041#0" to="725293625#1" departLane="best" type="veh_passenger"/>
    <trip id="veh232" depart="687.88" from="-1243425888" to="-788485782#7" departLane="best" type="veh_passenger" departSpeed="max"/>
    <trip id="veh233" depart="690.84" from="632266777#0" to="439133784#1" departLane="best" type="veh_passenger"/>
    <trip id="veh234" depart="693.81" from="-214085919#5" to="124861812#2" departLane="best" type="veh_passenger" departSpeed="max"/>