<?xml version="1.0" encoding="UTF-8"?>

<!-- generated on 2025-09-21 13:29:19.090582 by osmWebWizard.py UNKNOWN
<configuration>
    <net-file value="/home/vishwajit/Workspace/SIH2025/FDRL/sumo_files/2025-09-21-13-29-13/osm.net.xml.gz"/>
    <output-trip-file value="/home/vishwajit/Workspace/SIH2025/FDRL/sumo_files/2025-09-21-13-29-13/osm.motorcycle.trips.xml"/>
    <route-file value="/home/vishwajit/Workspace/SIH2025/FDRL/sumo_files/2025-09-21-13-29-13/osm.motorcycle.rou.xml"/>
    <prefix value="motorcycle"/>
    <trip-attributes value="departLane=&quot;best&quot;"/>
    <fringe-start-attributes value="departSpeed=&quot;max&quot;"/>
    <vehicle-class value="motorcycle"/>
    <fringe-factor value="5"/>
    <edge-permission value="motorcycle"/>
    <via-edge-types value="highway.motorway,highway.motorway_link,highway.trunk_link,highway.primary_link,highway.secondary_link,highway.tertiary_link"/>
    <seed value="43"/>
    <max-distance value="1200.0"/>
    <remove-loops value="True"/>
    <insertion-density value="50.0"/>
</configuration>
-->

<routes xmlns:xsi="http://www.w3.org/2001/XMLSchema-instance" xsi:noNamespaceSchemaLocation="http://sumo.dlr.de/xsd/routes_file.xsd">
    <vType id="motorcycle_motorcycle" vClass="motorcycle"/>
    <trip id="motorcycle0" depart="0.00" from="-1126750041#1" to="1265177027#3" departLane="best" type="motorcycle_motorcycle" departSpeed="max"/>
    <trip id="motorcycle1" depart="2.96" from="-608078456" to="1192349845" departLane="best" type="motorcycle_motorcycle" departSpeed="max"/>
    <trip id="motorcycle2" depart="5.93" from="-220589497#2" to="438962717#1" departLane="best" type="motorcycle_motorcycle" departSpeed="max"/>
    <trip id="motorcycle3" depart="8.89" from="1126750042" to="214085919#5" departLane="best" type="motorcycle_motorcycle"/>
    <trip id="motorcycle4" depart="11.86" from="-439133784#1" to="-1265177027#0" departLane="best" type="motorcycle_motorcycle" departSpeed="max"/>
    <trip id="motorcycle5" depart="14.82" from="214670750" to="317349751#1" departLane="best" type="motorcycle_motorcycle" departSpeed="max"/>
    <trip id="motorcycle6" depart="17.79" from="-725293625#1" to="1192260787" departLane="best" type="motorcycle_motorcycle" departSpeed="max"/>
    <trip id="motorcycle7" depart="20.75" from="1265177027#0" to="124861812#2" departLane="best" type="motorcycle_motorcycle"/>
    <trip id="motorcycle8" depart="23.72" from="-725293625#1" to="124858284#7" departLane="best" type="motorcycle_motorcycle" departSpeed="max"/>
    <trip id="motorcycle9" depart="26.68" from="-220589497#2" to="-124611620" departLane="best" type="motorcycle_motorcycle" departSpeed="max"/>
    <trip id="motorcycle10" depart="29.65" from="317349751#1" to="1243425888" departLane="best" type="motorcycle_motorcycle"/>
    <trip id="motorcycle11" depart="32.61" from="1238879358#0" to="665946597#0" departLane="best" type="motorcycle_motorcycle" departSpeed="max"/>
    <trip id="motorcycle12" depart="35.58" from="124861812#2" to="-124861809#1" departLane="best" type="motorcycle_motorcycle"/>
    <trip id="motorcycle13" depart="38.54" from="317349751#5" to="-725363522#1" departLane="best" type="motorcycle_motorcycle"/>
    <trip id="motorcycle14" depart="41.51" from="-788485782#5" to="1274598669#1" departLane="best" type="motorcycle_motorcycle"/>
    <trip id="motorcycle15" depart="44.47" from="1274598669#0" to="-124858284#0" departLane="best" type="motorcycle_motorcycle"/>
    <trip id="motorcycle16" depart="47.44" from="-124861803#2" to="124861817#2" departLane="best" type="motorcycle_motorcycle"/>
    <trip id="motorcycle17" depart="50.40" from="-1238879358#1" to="1192260787" departLane="best" type="motorcycle_motorcycle"/>
    <trip id="motorcycle18" depart="53.37" from="1274598669#0" to="725293625#1" departLane="best" type="motorcycle_motorcycle"/>
    <trip id="motorcycle19" depart="56.33" from="725363523#2" to="124861817#1" departLane="best" type="motorcycle_motorcycle"/>
    <trip id="motorcycle20" depart="59.30" from="-1189813847" to="-124861823#2" departLane="best" type="motorcycle_motorcycle" departSpeed="max"/>
    <trip id="motorcycle21" depart="62.26" from="-1189813847" to="124861825#1" departLane="best" type="motorcycle_motorcycle" departSpeed="max"/>
    <trip id="motorcycle22" depart="65.23" from="-124611617#1" to="220589498#0" departLane="best" type="motorcycle_motorcycle"/>
    <trip id="motorcycle23" depart="68.19" from="-49591929" to="-124611611#1" departLane="best" type="motorcycle_motorcycle" departSpeed="max"/>
    <trip id="motorcycle24" depart="71.16" from="725363526#0" to="-124861823#1" departLane="best" type="motorcycle_motorcycle"/>
    <trip id="motorcycle25" depart="74.12" from="124861824#0" to="788485782#3" departLane="best" type="motorcycle_motorcycle"/>
    <trip id="motorcycle26" depart="77.09" from="-214085922#2" to="1338550401" departLane="best" type="motorcycle_motorcycle"/>
    <trip id="motorcycle27" depart="80.05" from="-665946598" to="665946597#2" departLane="best" type="motorcycle_motorcycle"/>
    <trip id="motorcycle28" depart="83.02" from="124861817#4" to="320394882" departLane="best" type="motorcycle_motorcycle"/>
    <trip id="motorcycle29" depart="85.98" from="124861821#2" to="-124861809#1" departLane="best" type="motorcycle_motorcycle"/>
    <trip id="motorcycle30" depart="88.95" from="-124861817#3" to="665946597#1" departLane="best" type="motorcycle_motorcycle"/>
    <trip id="motorcycle31" depart="91.91" from="-317349751#6" to="1265177026#0" departLane="best" type="motorcycle_motorcycle" departSpeed="max"/>
    <trip id="motorcycle32" depart="94.88" from="1238879358#0" to="665546552" departLane="best" type="motorcycle_motorcycle" departSpeed="max"/>
    <trip id="motorcycle33" depart="97.84" from="-214085919#5" to="-788485782#2" departLane="best" type="motorcycle_motorcycle" departSpeed="max"/>
    <trip id="motorcycle34" depart="100.81" from="-124861803#2" to="-1265177027#0" departLane="best" type="motorcycle_motorcycle"/>
    <trip id="motorcycle35" depart="103.77" from="214085922#3" to="1303633133" departLane="best" type="motorcycle_motorcycle"/>
    <trip id="motorcycle36" depart="106.74" from="725363523#1" to="124861825#2" departLane="best" type="motorcycle_motorcycle"/>
    <trip id="motorcycle37" depart="109.70" from="725363522#0" to="-214085922#4" departLane="best" type="motorcycle_motorcycle"/>
    <trip id="motorcycle38" depart="112.67" from="-124861803#3" to="-214085922#0" departLane="best" type="motorcycle_motorcycle"/>
    <trip id="motorcycle39" depart="115.63" from="-124861823#1" to="1187806250" departLane="best" type="motorcycle_motorcycle"/>
    <trip id="motorcycle40" depart="118.60" from="-1187806250" to="-1238879358#4" departLane="best" type="motorcycle_motorcycle" departSpeed="max"/>
    <trip id="motorcycle41" depart="121.56" from="1126750041#0" to="124861817#5" departLane="best" type="motorcycle_motorcycle"/>
    <trip id="motorcycle42" depart="124.53" from="-725293625#1" to="665546552" departLane="best" type="motorcycle_motorcycle" departSpeed="max"/>
    <trip id="motorcycle43" depart="127.49" from="-1243425888" to="214085922#0" departLane="best" type="motorcycle_motorcycle" departSpeed="max"/>
    <trip id="motorcycle44" depart="130.46" from="124861817#3" to="-124861823#1" departLane="best" type="motorcycle_motorcycle"/>
    <trip id="motorcycle45" depart="133.42" from="124858284#0" to="-214085913#0" departLane="best" type="motorcycle_motorcycle"/>
    <trip id="motorcycle46" depart="136.39" from="-124861825#5" to="-124861823#5" departLane="best" type="motorcycle_motorcycle"/>
    <trip id="motorcycle47" depart="139.35" from="1187808932" to="1265177027#1" departLane="best" type="motorcycle_motorcycle" departSpeed="max"/>
    <trip id="motorcycle48" depart="142.32" from="-124861825#9" to="1274598669#0" departLane="best" type="motorcycle_motorcycle"/>
    <trip id="motorcycle49" depart="145.28" from="-1265177026#1" to="124861823#5" departLane="best" type="motorcycle_motorcycle"/>
    <trip id="motorcycle50" depart="148.25" from="124861823#5" to="1189813847" departLane="best" type="motorcycle_motorcycle"/>
    <trip id="motorcycle51" depart="151.21" from="124861796#0" to="-317349751#2" departLane="best" type="motorcycle_motorcycle"/>
    <trip id="motorcycle52" depart="154.18" from="124861812#0" to="-439133784#0" departLane="best" type="motorcycle_motorcycle" departSpeed="max"/>
    <trip id="motorcycle53" depart="157.14" from="-665546552" to="1177177536#1" departLane="best" type="motorcycle_motorcycle" departSpeed="max"/>
    <trip id="motorcycle54" depart="160.11" from="-788485782#1" to="124858284#7" departLane="best" type="motorcycle_motorcycle"/>
    <trip id="motorcycle55" depart="163.07" from="-124861817#5" to="665670054" departLane="best" type="motorcycle_motorcycle" departSpeed="max"/>
    <trip id="motorcycle56" depart="166.04" from="124861796#0" to="317349751#1" departLane="best" type="motorcycle_motorcycle"/>
    <trip id="motorcycle57" depart="169.00" from="124861817#3" to="608078458" departLane="best" type="motorcycle_motorcycle"/>
    <trip id="motorcycle58" depart="171.97" from="317349751#3" to="-214085956" departLane="best" type="motorcycle_motorcycle"/>
    <trip id="motorcycle59" depart="174.93" from="788485782#1" to="124861817#5" departLane="best" type="motorcycle_motorcycle"/>
    <trip id="motorcycle60" depart="177.90" from="124861823#6" to="1238879358#5" departLane="best" type="motorcycle_motorcycle"/>
    <trip id="motorcycle61" depart="180.86" from="-124861825#2" to="1192260787" departLane="best" type="motorcycle_motorcycle"/>
    <trip id="motorcycle62" depart="183.83" from="-214085922#4" to="1177177536#1" departLane="best" type="motorcycle_motorcycle"/>
    <trip id="motorcycle63" depart="186.79" from="-124861825#8" to="-124861823#7" departLane="best" type="motorcycle_motorcycle"/>
    <trip id="motorcycle64" depart="189.76" from="151522859#1" to="-788485782#7" departLane="best" type="motorcycle_motorcycle"/>
    <trip id="motorcycle65" depart="192.72" from="-220589497#1" to="220589494#0" departLane="best" type="motorcycle_motorcycle"/>
    <trip id="motorcycle66" depart="195.69" from="124861817#2" to="1177177536#1" departLane="best" type="motorcycle_motorcycle"/>
    <trip id="motorcycle67" depart="198.65" from="-124861824#0" to="124861809#1" departLane="best" type="motorcycle_motorcycle"/>
    <trip id="motorcycle68" depart="201.62" from="-124861796#2" to="608078456" departLane="best" type="motorcycle_motorcycle"/>
    <trip id="motorcycle69" depart="204.58" from="1303443733" to="-214085919#4" departLane="best" type="motorcycle_motorcycle" departSpeed="max"/>
    <trip id="motorcycle70" depart="207.55" from="-124858284#9" to="665946597#2" departLane="best" type="motorcycle_motorcycle"/>
    <trip id="motorcycle71" depart="210.51" from="1238879358#0" to="1338550401" departLane="best" type="motorcycle_motorcycle" departSpeed="max"/>
    <trip id="motorcycle72" depart="213.48" from="49591851" to="-220589498#1" departLane="best" type="motorcycle_motorcycle" departSpeed="max"/>
    <trip id="motorcycle73" depart="216.44" from="-665946598" to="665546552" departLane="best" type="motorcycle_motorcycle"/>
    <trip id="motorcycle74" depart="219.41" from="22842320#0" to="317349751#6" departLane="best" type="motorcycle_motorcycle" departSpeed="max"/>
    <trip id="motorcycle75" depart="222.37" from="-725363522#0" to="-124861823#5" departLane="best" type="motorcycle_motorcycle"/>
    <trip id="motorcycle76" depart="225.34" from="-439133784#1" to="1187806250" departLane="best" type="motorcycle_motorcycle" departSpeed="max"/>
    <trip id="motorcycle77" depart="228.30" from="-608078458" to="124861823#6" departLane="best" type="motorcycle_motorcycle" departSpeed="max"/>
    <trip id="motorcycle78" depart="231.27" from="-1192349845" to="124861825#6" departLane="best" type="motorcycle_motorcycle" departSpeed="max"/>
    <trip id="motorcycle79" depart="234.23" from="-665670054" to="317349751#0" departLane="best" type="motorcycle_motorcycle" departSpeed="max"/>
    <trip id="motorcycle80" depart="237.20" from="-1303633133" to="124861825#10" departLane="best" type="motorcycle_motorcycle" departSpeed="max"/>
    <trip id="motorcycle81" depart="240.16" from="-124861817#3" to="1274598669#0" departLane="best" type="motorcycle_motorcycle"/>
    <trip id="motorcycle82" depart="243.13" from="-665546552" to="725293625#1" departLane="best" type="motorcycle_motorcycle" departSpeed="max"/>
    <trip id="motorcycle83" depart="246.09" from="317349751#2" to="317349751#6" departLane="best" type="motorcycle_motorcycle"/>
    <trip id="motorcycle84" depart="249.06" from="-124861802" to="124861821#1" departLane="best" type="motorcycle_motorcycle"/>
    <trip id="motorcycle85" depart="252.02" from="-320394882" to="-124858284#4" departLane="best" type="motorcycle_motorcycle"/>
    <trip id="motorcycle86" depart="254.99" from="124858284#7" to="-124861803#0" departLane="best" type="motorcycle_motorcycle"/>
    <trip id="motorcycle87" depart="257.95" from="317349751#3" to="665670054" departLane="best" type="motorcycle_motorcycle"/>
    <trip id="motorcycle88" depart="260.92" from="-1187815339" to="49591929" departLane="best" type="motorcycle_motorcycle" departSpeed="max"/>
    <trip id="motorcycle89" depart="263.88" from="124861803#2" to="-214085922#5" departLane="best" type="motorcycle_motorcycle"/>
    <trip id="motorcycle90" depart="266.85" from="-1265177027#1" to="124861817#4" departLane="best" type="motorcycle_motorcycle"/>
    <trip id="motorcycle91" depart="269.81" from="1303443733" to="124861818#1" departLane="best" type="motorcycle_motorcycle" departSpeed="max"/>
    <trip id="motorcycle92" depart="272.78" from="-317349751#6" to="124861821#1" departLane="best" type="motorcycle_motorcycle" departSpeed="max"/>
    <trip id="motorcycle93" depart="275.74" from="214670750" to="124861825#1" departLane="best" type="motorcycle_motorcycle" departSpeed="max"/>
    <trip id="motorcycle94" depart="278.71" from="-608078456" to="124861809#0" departLane="best" type="motorcycle_motorcycle" departSpeed="max"/>
    <trip id="motorcycle95" depart="281.67" from="-124861817#2" to="1177177536#0" departLane="best" type="motorcycle_motorcycle"/>
    <trip id="motorcycle96" depart="284.64" from="214085922#6" to="1189813847" departLane="best" type="motorcycle_motorcycle"/>
    <trip id="motorcycle97" depart="287.60" from="-1091258063" to="220589507" departLane="best" type="motorcycle_motorcycle" departSpeed="max"/>
    <trip id="motorcycle98" depart="290.57" from="1187808932" to="214085922#3" departLane="best" type="motorcycle_motorcycle" departSpeed="max"/>
    <trip id="motorcycle99" depart="293.53" from="-1238879358#1" to="1177177536#1" departLane="best" type="motorcycle_motorcycle"/>
    <trip id="motorcycle100" depart="296.50" from="-608078456" to="-124861823#0" departLane="best" type="motorcycle_motorcycle" departSpeed="max"/>
    <trip id="motorcycle101" depart="299.46" from="124861814" to="1192349845" departLane="best" type="motorcycle_motorcycle" departSpeed="max"/>
    <trip id="motorcycle102" depart="302.43" from="-788485782#3" to="-214085956" departLane="best" type="motorcycle_motorcycle"/>
    <trip id="motorcycle103" depart="305.39" from="124861825#8" to="-1177177536#0" departLane="best" type="motorcycle_motorcycle"/>
    <trip id="motorcycle104" depart="308.36" from="-214085913#1" to="-124861812#0" departLane="best" type="motorcycle_motorcycle"/>
    <trip id="motorcycle105" depart="311.32" from="-1189813847" to="-1177177536#0" departLane="best" type="motorcycle_motorcycle" departSpeed="max"/>
    <trip id="motorcycle106" depart="314.29" from="-788485782#3" to="-124861796#2" departLane="best" type="motorcycle_motorcycle"/>
    <trip id="motorcycle107" depart="317.25" from="-1238879358#3" to="1171540750" departLane="best" type="motorcycle_motorcycle"/>
    <trip id="motorcycle108" depart="320.22" from="124861812#2" to="-214085913#0" departLane="best" type="motorcycle_motorcycle"/>
    <trip id="motorcycle109" depart="323.18" from="788485782#4" to="-788485782#7" departLane="best" type="motorcycle_motorcycle"/>
    <trip id="motorcycle110" depart="326.15" from="22842320#1" to="-665546553" departLane="best" type="motorcycle_motorcycle"/>
    <trip id="motorcycle111" depart="329.11" from="-1265177027#3" to="1171540750" departLane="best" type="motorcycle_motorcycle"/>
    <trip id="motorcycle112" depart="332.08" from="-1107662879" to="151522859#1" departLane="best" type="motorcycle_motorcycle"/>
    <trip id="motorcycle113" depart="335.04" from="-1189813847" to="124861817#5" departLane="best" type="motorcycle_motorcycle" departSpeed="max"/>
    <trip id="motorcycle114" depart="338.01" from="-1187806250" to="1171540750" departLane="best" type="motorcycle_motorcycle" departSpeed="max"/>
    <trip id="motorcycle115" depart="340.97" from="-124861825#10" to="725293625#0" departLane="best" type="motorcycle_motorcycle"/>
    <trip id="motorcycle116" depart="343.94" from="-214085908#0" to="-788485782#6" departLane="best" type="motorcycle_motorcycle"/>
    <trip id="motorcycle117" depart="346.90" from="-214085908#1" to="-124861823#1" departLane="best" type="motorcycle_motorcycle" departSpeed="max"/>
    <trip id="motorcycle118" depart="349.87" from="-1265177026#0" to="-665546553" departLane="best" type="motorcycle_motorcycle"/>
    <trip id="motorcycle119" depart="352.83" from="-124861817#5" to="-124861823#0" departLane="best" type="motorcycle_motorcycle" departSpeed="max"/>
    <trip id="motorcycle120" depart="355.80" from="-214085919#5" to="124858284#4" departLane="best" type="motorcycle_motorcycle" departSpeed="max"/>
    <trip id="motorcycle121" depart="358.76" from="-1265177027#3" to="-124861812#2" departLane="best" type="motorcycle_motorcycle"/>
    <trip id="motorcycle122" depart="361.73" from="317349751#4" to="1177177536#1" departLane="best" type="motorcycle_motorcycle"/>
    <trip id="motorcycle123" depart="364.69" from="-439133784#1" to="-1265177026#0" departLane="best" type="motorcycle_motorcycle" departSpeed="max"/>
    <trip id="motorcycle124" depart="367.66" from="124861812#0" to="151522859#0" departLane="best" type="motorcycle_motorcycle" departSpeed="max"/>
    <trip id="motorcycle125" depart="370.62" from="-124861825#3" to="124861821#0" departLane="best" type="motorcycle_motorcycle"/>
    <trip id="motorcycle126" depart="373.59" from="-1192349845" to="-665546553" departLane="best" type="motorcycle_motorcycle" departSpeed="max"/>
    <trip id="motorcycle127" depart="376.55" from="-22842320#1" to="1126750041#1" departLane="best" type="motorcycle_motorcycle"/>
    <trip id="motorcycle128" depart="379.52" from="665546553" to="-1238879358#0" departLane="best" type="motorcycle_motorcycle" departSpeed="max"/>
    <trip id="motorcycle129" depart="382.48" from="1265177026#0" to="-124861825#8" departLane="best" type="motorcycle_motorcycle"/>
    <trip id="motorcycle130" depart="385.45" from="-124861809#0" to="-788485782#3" departLane="best" type="motorcycle_motorcycle"/>
    <trip id="motorcycle131" depart="388.41" from="124858284#1" to="-665546553" departLane="best" type="motorcycle_motorcycle"/>
    <trip id="motorcycle132" depart="391.38" from="-725363522#1" to="1238879358#4" departLane="best" type="motorcycle_motorcycle"/>
    <trip id="motorcycle133" depart="394.34" from="632266777#1" to="124861796#0" departLane="best" type="motorcycle_motorcycle"/>
    <trip id="motorcycle134" depart="397.31" from="-1265177026#0" to="124861821#3" departLane="best" type="motorcycle_motorcycle"/>
    <trip id="motorcycle135" depart="400.27" from="124861823#3" to="-1177177536#0" departLane="best" type="motorcycle_motorcycle"/>
    <trip id="motorcycle136" depart="403.24" from="-1187806250" to="1303633133" departLane="best" type="motorcycle_motorcycle" departSpeed="max"/>
    <trip id="motorcycle137" depart="406.20" from="-1243425888" to="788485782#3" departLane="best" type="motorcycle_motorcycle" departSpeed="max"/>
    <trip id="motorcycle138" depart="409.17" from="-124861825#2" to="124861824#0" departLane="best" type="motorcycle_motorcycle"/>
    <trip id="motorcycle139" depart="412.13" from="-124861825#8" to="-1265177026#0" departLane="best" type="motorcycle_motorcycle"/>
    <trip id="motorcycle140" depart="415.10" from="-439133784#1" to="1192349845" departLane="best" type="motorcycle_motorcycle" departSpeed="max"/>
    <trip id="motorcycle141" depart="418.06" from="-1177177536#1" to="-124861825#7" departLane="best" type="motorcycle_motorcycle" departSpeed="max"/>
    <trip id="motorcycle142" depart="421.03" from="-220589498#1" to="124611611#4" departLane="best" type="motorcycle_motorcycle"/>
    <trip id="motorcycle143" depart="423.99" from="124861817#3" to="-124861823#5" departLane="best" type="motorcycle_motorcycle"/>
    <trip id="motorcycle144" depart="426.96" from="-49591929" to="1091258062" departLane="best" type="motorcycle_motorcycle" departSpeed="max"/>
    <trip id="motorcycle145" depart="429.92" from="-1189813847" to="665670054" departLane="best" type="motorcycle_motorcycle" departSpeed="max"/>
    <trip id="motorcycle146" depart="432.89" from="1238879358#0" to="214085919#5" departLane="best" type="motorcycle_motorcycle" departSpeed="max"/>
    <trip id="motorcycle147" depart="435.85" from="-1303633133" to="-22842320#0" departLane="best" type="motorcycle_motorcycle" departSpeed="max"/>
    <trip id="motorcycle148" depart="438.82" from="-317349751#2" to="124861821#0" departLane="best" type="motorcycle_motorcycle"/>
    <trip id="motorcycle149" depart="441.78" from="-608078456" to="1274598669#0" departLane="best" type="motorcycle_motorcycle" departSpeed="max"/>
    <trip id="motorcycle150" depart="444.75" from="788485782#2" to="124861809#0" departLane="best" type="motorcycle_motorcycle"/>
    <trip id="motorcycle151" depart="447.71" from="151522858" to="725293625#1" departLane="best" type="motorcycle_motorcycle"/>
    <trip id="motorcycle152" depart="450.68" from="725363524#0" to="-788485782#3" departLane="best" type="motorcycle_motorcycle"/>
    <trip id="motorcycle153" depart="453.64" from="214085956" to="1265177027#3" departLane="best" type="motorcycle_motorcycle"/>
    <trip id="motorcycle154" depart="456.61" from="317349751#5" to="608078458" departLane="best" type="motorcycle_motorcycle"/>
    <trip id="motorcycle155" depart="459.57" from="-214085922#2" to="214085908#0" departLane="best" type="motorcycle_motorcycle"/>
    <trip id="motorcycle156" depart="462.54" from="214085922#3" to="1177177536#1" departLane="best" type="motorcycle_motorcycle"/>
    <trip id="motorcycle157" depart="465.50" from="632266777#1" to="1243425888" departLane="best" type="motorcycle_motorcycle"/>
    <trip id="motorcycle158" depart="468.47" from="-124861824#1" to="1171540750" departLane="best" type="motorcycle_motorcycle"/>
    <trip id="motorcycle159" depart="471.43" from="-214085919#5" to="124861821#1" departLane="best" type="motorcycle_motorcycle" departSpeed="max"/>
    <trip id="motorcycle160" depart="474.40" from="-214085919#1" to="1192260787" departLane="best" type="motorcycle_motorcycle"/>
    <trip id="motorcycle161" depart="477.36" from="-1189813847" to="-665546553" departLane="best" type="motorcycle_motorcycle" departSpeed="max"/>
    <trip id="motorcycle162" depart="480.33" from="-1238879358#1" to="1189813847" departLane="best" type="motorcycle_motorcycle"/>
    <trip id="motorcycle163" depart="483.29" from="-1126750041#1" to="788485782#3" departLane="best" type="motorcycle_motorcycle" departSpeed="max"/>
    <trip id="motorcycle164" depart="486.26" from="-124861817#5" to="-1177177536#0" departLane="best" type="motorcycle_motorcycle" departSpeed="max"/>
    <trip id="motorcycle165" depart="489.22" from="1187808932" to="665546552" departLane="best" type="motorcycle_motorcycle" departSpeed="max"/>
    <trip id="motorcycle166" depart="492.19" from="-1187806250" to="1189813847" departLane="best" type="motorcycle_motorcycle" departSpeed="max"/>
    <trip id="motorcycle167" depart="495.15" from="214085949" to="-214670750" departLane="best" type="motorcycle_motorcycle"/>
    <trip id="motorcycle168" depart="498.12" from="-1243425888" to="-124858284#3" departLane="best" type="motorcycle_motorcycle" departSpeed="max"/>
    <trip id="motorcycle169" depart="501.08" from="124861817#1" to="214085922#0" departLane="best" type="motorcycle_motorcycle"/>
    <trip id="motorcycle170" depart="504.05" from="-49591929" to="220589494#0" departLane="best" type="motorcycle_motorcycle" departSpeed="max"/>
    <trip id="motorcycle171" depart="507.01" from="-214085919#5" to="608078458" departLane="best" type="motorcycle_motorcycle" departSpeed="max"/>
    <trip id="motorcycle172" depart="509.98" from="124861825#1" to="124861818#1" departLane="best" type="motorcycle_motorcycle"/>
    <trip id="motorcycle173" depart="512.94" from="214085972" to="124861825#5" departLane="best" type="motorcycle_motorcycle"/>
    <trip id="motorcycle174" depart="515.91" from="-439133784#1" to="-665546553" departLane="best" type="motorcycle_motorcycle" departSpeed="max"/>
    <trip id="motorcycle175" depart="518.87" from="214085908#0" to="-788485782#5" departLane="best" type="motorcycle_motorcycle"/>
    <trip id="motorcycle176" depart="521.84" from="-1189813847" to="317349751#6" departLane="best" type="motorcycle_motorcycle" departSpeed="max"/>
    <trip id="motorcycle177" depart="524.80" from="124611611#2" to="-124611617#2" departLane="best" type="motorcycle_motorcycle"/>
    <trip id="motorcycle178" depart="527.77" from="-1192260787" to="-320394882" departLane="best" type="motorcycle_motorcycle" departSpeed="max"/>
    <trip id="motorcycle179" depart="530.73" from="151522858" to="214085913#0" departLane="best" type="motorcycle_motorcycle"/>
    <trip id="motorcycle180" depart="533.70" from="124861823#6" to="1238879358#3" departLane="best" type="motorcycle_motorcycle"/>
    <trip id="motorcycle181" depart="536.66" from="-1189813847" to="-788485782#4" departLane="best" type="motorcycle_motorcycle" departSpeed="max"/>
    <trip id="motorcycle182" depart="539.63" from="124861825#0" to="-1238879358#3" departLane="best" type="motorcycle_motorcycle"/>
    <trip id="motorcycle183" depart="542.59" from="-124861824#1" to="-1238879358#0" departLane="best" type="motorcycle_motorcycle"/>
    <trip id="motorcycle184" depart="545.56" from="-214085919#5" to="-665946598" departLane="best" type="motorcycle_motorcycle" departSpeed="max"/>
    <trip id="motorcycle185" depart="548.52" from="-665546552" to="-1265177027#0" departLane="best" type="motorcycle_motorcycle" departSpeed="max"/>
    <trip id="motorcycle186" depart="551.49" from="1126750041#0" to="-124861817#3" departLane="best" type="motorcycle_motorcycle"/>
    <trip id="motorcycle187" depart="554.45" from="1303443733" to="317349751#6" departLane="best" type="motorcycle_motorcycle" departSpeed="max"/>
    <trip id="motorcycle188" depart="557.42" from="-320394882" to="608078456" departLane="best" type="motorcycle_motorcycle"/>
    <trip id="motorcycle189" depart="560.38" from="124858284#9" to="1177177536#1" departLane="best" type="motorcycle_motorcycle"/>
    <trip id="motorcycle190" depart="563.35" from="-220589506" to="124611611#4" departLane="best" type="motorcycle_motorcycle"/>
    <trip id="motorcycle191" depart="566.31" from="124611617#2" to="1091258062" departLane="best" type="motorcycle_motorcycle"/>
    <trip id="motorcycle192" depart="569.28" from="317349751#0" to="665946598" departLane="best" type="motorcycle_motorcycle"/>
    <trip id="motorcycle193" depart="572.24" from="1107662879" to="1187806250" departLane="best" type="motorcycle_motorcycle"/>
    <trip id="motorcycle194" depart="575.21" from="632266777#0" to="1265177026#0" departLane="best" type="motorcycle_motorcycle"/>
    <trip id="motorcycle195" depart="578.17" from="-124861817#5" to="1187806250" departLane="best" type="motorcycle_motorcycle" departSpeed="max"/>
    <trip id="motorcycle196" depart="581.14" from="725363522#0" to="-124861825#0" departLane="best" type="motorcycle_motorcycle"/>
    <trip id="motorcycle197" depart="584.10" from="-1192260787" to="-214670750" departLane="best" type="motorcycle_motorcycle" departSpeed="max"/>
    <trip id="motorcycle198" depart="587.07" from="-124861825#3" to="-124861803#3" departLane="best" type="motorcycle_motorcycle"/>
    <trip id="motorcycle199" depart="590.03" from="-1192260787" to="317349751#4" departLane="best" type="motorcycle_motorcycle" departSpeed="max"/>
    <trip id="motorcycle200" depart="593.00" from="-214085908#1" to="124861825#3" departLane="best" type="motorcycle_motorcycle" departSpeed="max"/>
    <trip id="motorcycle201" depart="595.96" from="-665670054" to="1238879358#5" departLane="best" type="motorcycle_motorcycle" departSpeed="max"/>
    <trip id="motorcycle202" depart="598.93" from="-608078456" to="-1238879358#6" departLane="best" type="motorcycle_motorcycle" departSpeed="max"/>
    <trip id="motorcycle203" depart="601.89" from="214085919#0" to="1274598669#0" departLane="best" type="motorcycle_motorcycle"/>
    <trip id="motorcycle204" depart="604.86" from="725363522#1" to="1265177027#1" departLane="best" type="motorcycle_motorcycle"/>
    <trip id="motorcycle205" depart="607.82" from="-124861823#2" to="124861802" departLane="best" type="motorcycle_motorcycle"/>
    <trip id="motorcycle206" depart="610.79" from="124861809#1" to="-22842320#1" departLane="best" type="motorcycle_motorcycle"/>
    <trip id="motorcycle207" depart="613.75" from="-124861817#3" to="-1238879358#5" departLane="best" type="motorcycle_motorcycle"/>
    <trip id="motorcycle208" depart="616.72" from="317349751#3" to="-788485782#0" departLane="best" type="motorcycle_motorcycle"/>
    <trip id="motorcycle209" depart="619.68" from="-214085922#0" to="-22842320#1" departLane="best" type="motorcycle_motorcycle"/>