<?xml version="1.0" encoding="UTF-8"?>

<!-- generated on 2025-09-21 22:06:54.586859 by osmWebWizard.py UNKNOWN
<configuration>
    <net-file value="/home/vishwajit/Workspace/SIH2025/FDRL/sumo_files/2025-09-21-22-06-32/osm.net.xml.gz"/>
    <output-trip-file value="/home/vishwajit/Workspace/SIH2025/FDRL/sumo_files/2025-09-21-22-06-32/osm.passenger.trips.xml"/>
    <route-file value="/home/vishwajit/Workspace/SIH2025/FDRL/sumo_files/2025-09-21-22-06-32/osm.passenger.rou.xml"/>
    <prefix value="veh"/>
    <trip-attributes value="departLane=&quot;best&quot;"/>
    <fringe-start-attributes value="departSpeed=&quot;max&quot;"/>
    <vehicle-class value="passenger"/>
    <lanes value="True"/>
    <fringe-factor value="5"/>
    <allow-fringe.min-length value="1000.0"/>
    <edge-permission value="passenger"/>
    <via-edge-types value="highway.motorway,highway.motorway_link,highway.trunk_link,highway.primary_link,highway.secondary_link,highway.tertiary_link"/>
    <seed value="44"/>
    <min-distance value="300.0"/>
    <min-distance.fringe value="10.0"/>
    <remove-loops value="True"/>
    <insertion-density value="30.0"/>
</configuration>
-->

<routes xmlns:xsi="http://www.w3.org/2001/XMLSchema-instance" xsi:noNamespaceSchemaLocation="http://sumo.dlr.de/xsd/routes_file.xsd">
    <vType id="veh_passenger" vClass="passenger"/>
    <trip id="veh0" depart="0.00" from="1098856714#3" to="1373064823#0" departLane="best" type="veh_passenger"/>
    <trip id="veh1" depart="3.18" from="4613112" to="-201408461#1" departLane="best" type="veh_passenger" departSpeed="max"/>
    <trip id="veh2" depart="6.35" from="-34580834#13" to="-1052734946" departLane="best" type="veh_passenger"/>
    <trip id="veh3" depart="9.53" from="-1397609462" to="-1024034687#2" departLane="best" type="veh_passenger" departSpeed="max"/>
    <trip id="veh4" depart="12.71" from="-182690326#8" to="1151940479" departLane="best" type="veh_passenger"/>
    <trip id="veh5" depart="15.88" from="881921235#1" to="295445243" departLane="best" type="veh_passenger"/>
    <trip id="veh6" depart="19.06" from="1052675176#5" to="1095165529" departLane="best" type="veh_passenger"/>
    <trip id="veh7" depart="22.23" from="268002748#0" to="-717177007#0" departLane="best" type="veh_passenger" departSpeed="max"/>
    <trip id="veh8" depart="25.41" from="184077630#12" to="-1152640372#5" departLane="best" type="veh_passenger"/>
    <trip id="veh9" depart="28.59" from="73310497#0" to="-11483256" departLane="best" type="veh_passenger"/>
    <trip id="veh10" depart="31.76" from="184429424#7" to="8149654#1" departLane="best" type="veh_passenger"/>
    <trip id="veh11" depart="34.94" from="-1095165529" to="1052675176#5" departLane="best" type="veh_passenger" departSpeed="max"/>
    <trip id="veh12" depart="38.12" from="1133761609#0" to="598692947#1" departLane="best" type="veh_passenger"/>
    <trip id="veh13" depart="41.29" from="-390614076#2" to="-1100646993" departLane="best" type="veh_passenger"/>
    <trip id="veh14" depart="44.47" from="25558788#0" to="4296469#2" departLane="best" type="veh_passenger" departSpeed="max"/>
    <trip id="veh15" depart="47.65" from="1101405300" to="-1052757284#1" departLane="best" type="veh_passenger" departSpeed="max"/>
    <trip id="veh16" depart="50.82" from="309300321" to="312651884#2" departLane="best" type="veh_passenger"/>
    <trip id="veh17" depart="54.00" from="24684997#1" to="-717177007#14" departLane="best" type="veh_passenger"/>
    <trip id="veh18" depart="57.18" from="4606258#0" to="238682696#2" departLane="best" type="veh_passenger" departSpeed="max"/>
    <trip id="veh19" depart="60.35" from="-34580834#8" to="1121505024#0" departLane="best" type="veh_passenger"/>
    <trip id="veh20" depart="63.53" from="376759635" to="267542609#4" departLane="best" type="veh_passenger"/>
    <trip id="veh21" depart="66.70" from="-881921235#4" to="44122832#0" departLane="best" type="veh_passenger"/>
    <trip id="veh22" depart="69.88" from="4610352#1" to="-1095407474#2" departLane="best" type="veh_passenger"/>
    <trip id="veh23" depart="73.06" from="-184077630#10" to="-312645512#2" departLane="best" type="veh_passenger"/>
    <trip id="veh24" depart="76.23" from="980542375" to="-881921235#1" departLane="best" type="veh_passenger"/>
    <trip id="veh25" depart="79.41" from="-297373653#13" to="-1152640372#3" departLane="best" type="veh_passenger"/>
    <trip id="veh26" depart="82.59" from="-83146232#0" to="4606230#0" departLane="best" type="veh_passenger"/>
    <trip id="veh27" depart="85.76" from="182690326#5" to="-1101405300" departLane="best" type="veh_passenger"/>
    <trip id="veh28" depart="88.94" from="1101405293" to="-1098856743" departLane="best" type="veh_passenger" departSpeed="max"/>
    <trip id="veh29" depart="92.12" from="184429424#3" to="-1225924291#2" departLane="best" type="veh_passenger"/>
    <trip id="veh30" depart="95.29" from="4606258#3" to="201408461#2" departLane="best" type="veh_passenger"/>
    <trip id="veh31" depart="98.47" from="-46138135#2" to="24914109" departLane="best" type="veh_passenger"/>
    <trip id="veh32" depart="101.64" from="-4613287" to="-1024034687#0" departLane="best" type="veh_passenger"/>
    <trip id="veh33" depart="104.82" from="-4613293#1" to="268002748#2" departLane="best" type="veh_passenger"/>
    <trip id="veh34" depart="108.00" from="184430983#1" to="-25134073" departLane="best" type="veh_passenger"/>
    <trip id="veh35" depart="111.17" from="4610354#0" to="4606213" departLane="best" type="veh_passenger"/>
    <trip id="veh36" depart="114.35" from="-4613299#4" to="73310499" departLane="best" type="veh_passenger" departSpeed="max"/>
    <trip id="veh37" depart="117.53" from="-4606258#1" to="-1121008013" departLane="best" type="veh_passenger"/>
    <trip id="veh38" depart="120.70" from="1139102389" to="4613286#1" departLane="best" type="veh_passenger"/>
    <trip id="veh39" depart="123.88" from="-4790879#1" to="1094434971" departLane="best" type="veh_passenger"/>
    <trip id="veh40" depart="127.06" from="1158223859#1" to="717177007#14" departLane="best" type="veh_passenger"/>
    <trip id="veh41" depart="130.23" from="-1139102398#1" to="-36689634#2" departLane="best" type="veh_passenger"/>
    <trip id="veh42" depart="133.41" from="717177007#2" to="24968394#0" departLane="best" type="veh_passenger"/>
    <trip id="veh43" depart="136.58" from="-1139102398#3" to="1104460750" departLane="best" type="veh_passenger"/>
    <trip id="veh44" depart="139.76" from="-1140771901#3" to="4790822" departLane="best" type="veh_passenger"/>
    <trip id="veh45" depart="142.94" from="34580834#13" to="-4606218#0" departLane="best" type="veh_passenger"/>
    <trip id="veh46" depart="146.11" from="1141076641#1" to="44427219#0" departLane="best" type="veh_passenger"/>
    <trip id="veh47" depart="149.29" from="-373389574#0" to="295445243" departLane="best" type="veh_passenger"/>
    <trip id="veh48" depart="152.47" from="1323456348#3" to="-1122497068" departLane="best" type="veh_passenger"/>
    <trip id="veh49" depart="155.64" from="-4610356" to="1096709571#0" departLane="best" type="veh_passenger" departSpeed="max"/>
    <trip id="veh50" depart="158.82" from="-147657122#6" to="717177007#15" departLane="best" type="veh_passenger"/>
    <trip id="veh51" depart="162.00" from="-41926994" to="-320894149#0" departLane="best" type="veh_passenger"/>
    <trip id="veh52" depart="165.17" from="16571799#6" to="1212138995#1" departLane="best" type="veh_passenger"/>
    <trip id="veh53" depart="168.35" from="-717177007#4" to="-699211935#1" departLane="best" type="veh_passenger"/>
    <trip id="veh54" depart="171.53" from="4296468#0" to="102984483#1" departLane="best" type="veh_passenger"/>
    <trip id="veh55" depart="174.70" from="-32858408#0" to="295445243" departLane="best" type="veh_passenger"/>
    <trip id="veh56" depart="177.88" from="312654701#0" to="-1024034687#0" departLane="best" type="veh_passenger"/>
    <trip id="veh57" depart="181.05" from="-699211935#2" to="131650082#1" departLane="best" type="veh_passenger" departSpeed="max"/>
    <trip id="veh58" depart="184.23" from="-31619761#0" to="-1408122424" departLane="best" type="veh_passenger"/>
    <trip id="veh59" depart="187.41" from="-267542609#1" to="-102984483#1" departLane="best" type="veh_passenger"/>
    <trip id="veh60" depart="190.58" from="-1397609473" to="1052675227#6" departLane="best" type="veh_passenger"/>
    <trip id="veh61" depart="193.76" from="1138687771" to="24326506#2" departLane="best" type="veh_passenger" departSpeed="max"/>
    <trip id="veh62" depart="196.94" from="-699211935#0" to="-1408122424" departLane="best" type="veh_passenger"/>
    <trip id="veh63" depart="200.11" from="598692947#1" to="238682696#3" departLane="best" type="veh_passenger"/>
    <trip id="veh64" depart="203.29" from="25558788#1" to="268002748#3" departLane="best" type="veh_passenger"/>
    <trip id="veh65" depart="206.47" from="-717177007#9" to="184077626#6" departLane="best" type="veh_passenger"/>
    <trip id="veh66" depart="209.64" from="-717177007#2" to="24914141#1" departLane="best" type="veh_passenger"/>
    <trip id="veh67" depart="212.82" from="4484427#0" to="-1052675176#0" departLane="best" type="veh_passenger"/>
    <trip id="veh68" depart="215.99" from="390614076#3" to="-1158223859#1" departLane="best" type="veh_passenger"/>
    <trip id="veh69" depart="219.17" from="690429978#7" to="-180331460" departLane="best" type="veh_passenger"/>
    <trip id="veh70" depart="222.35" from="1101404966#0" to="717177007#12" departLane="best" type="veh_passenger"/>
    <trip id="veh71" depart="225.52" from="4613299#3" to="44427220#0" departLane="best" type="veh_passenger"/>
    <trip id="veh72" depart="228.70" from="-390614076#3" to="-454285423" departLane="best" type="veh_passenger"/>
    <trip id="veh73" depart="231.88" from="-173197451#0" to="-376759635" departLane="best" type="veh_passenger"/>
    <trip id="veh74" depart="235.05" from="1098856683#3" to="371927739#1" departLane="best" type="veh_passenger"/>
    <trip id="veh75" depart="238.23" from="-23294727#1" to="1105526086" departLane="best" type="veh_passenger"/>
    <trip id="veh76" depart="241.41" from="4613300#4" to="1133992726#1" departLane="best" type="veh_passenger"/>
    <trip id="veh77" depart="244.58" from="373389574#0" to="268002748#3" departLane="best" type="veh_passenger"/>
    <trip id="veh78" depart="247.76" from="4613295#0" to="1139684193" departLane="best" type="veh_passenger"/>
    <trip id="veh79" depart="250.93" from="1052675176#3" to="1121505024#0" departLane="best" type="veh_passenger"/>
    <trip id="veh80" depart="254.11" from="4296467#0" to="-4606218#0" departLane="best" type="veh_passenger"/>
    <trip id="veh81" depart="257.29" from="-268002748#2" to="4606218#1" departLane="best" type="veh_passenger"/>
    <trip id="veh82" depart="260.46" from="1133992724#0" to="24684997#1" departLane="best" type="veh_passenger"/>
    <trip id="veh83" depart="263.64" from="-201408461#1" to="-1052758758#1" departLane="best" type="veh_passenger"/>
    <trip id="veh84" depart="266.82" from="-34580834#13" to="1101404336" departLane="best" type="veh_passenger"/>
    <trip id="veh85" depart="269.99" from="-1095165529" to="-4296469#3" departLane="best" type="veh_passenger" departSpeed="max"/>
    <trip id="veh86" depart="273.17" from="717177007#15" to="1101405046#0" departLane="best" type="veh_passenger"/>
    <trip id="veh87" depart="276.35" from="-1024034687#11" to="373389574#4" departLane="best" type="veh_passenger"/>
    <trip id="veh88" depart="279.52" from="-493008123#1" to="-184429424#6" departLane="best" type="veh_passenger"/>
    <trip id="veh89" depart="282.70" from="23852056#0" to="24968394#3" departLane="best" type="veh_passenger" departSpeed="max"/>
    <trip id="veh90" depart="285.88" from="4613293#0" to="-80715076#1" departLane="best" type="veh_passenger"/>
    <trip id="veh91" depart="289.05" from="153689810#0" to="-4606263#1" departLane="best" type="veh_passenger"/>
    <trip id="veh92" depart="292.23" from="24684997#0" to="31619761#1" departLane="best" type="veh_passenger"/>
    <trip id="veh93" depart="295.40" from="-83146232#3" to="24968394#4" departLane="best" type="veh_passenger"/>
    <trip id="veh94" depart="298.58" from="717177007#15" to="-184077630#9" departLane="best" type="veh_passenger"/>
    <trip id="veh95" depart="301.76" from="41926994" to="1133992729#3" departLane="best" type="veh_passenger"/>
    <trip id="veh96" depart="304.93" from="717177007#2" to="-1122497068" departLane="best" type="veh_passenger"/>
    <trip id="veh97" depart="308.11" from="1052675227#5" to="-182690326#6" departLane="best" type="veh_passenger"/>
    <trip id="veh98" depart="311.29" from="-4606218#1" to="4613300#7" departLane="best" type="veh_passenger"/>
    <trip id="veh99" depart="314.46" from="1141076640#2" to="-980542375" departLane="best" type="veh_passenger"/>
    <trip id="veh100" depart="317.64" from="740848375" to="-1100646994" departLane="best" type="veh_passenger"/>
    <trip id="veh101" depart="320.82" from="-1052675227#2" to="319339414#1" departLane="best" type="veh_passenger"/>
    <trip id="veh102" depart="323.99" from="131650082#1" to="4606214" departLane="best" type="veh_passenger"/>
    <trip id="veh103" depart="327.17" from="-8149654#11" to="-31619761#0" departLane="best" type="veh_passenger"/>
    <trip id="veh104" depart="330.34" from="4613298#1" to="131650082#0" departLane="best" type="veh_passenger"/>
    <trip id="veh105" depart="333.52" from="-1052758758#1" to="-1024034687#3" departLane="best" type="veh_passenger"/>
    <trip id="veh106" depart="336.70" from="-1052675176#5" to="31145647#2" departLane="best" type="veh_passenger"/>
    <trip id="veh107" depart="339.87" from="23852056#0" to="-1157341840#0" departLane="best" type="veh_passenger" departSpeed="max"/>
    <trip id="veh108" depart="343.05" from="232070355#0" to="16571799#6" departLane="best" type="veh_passenger"/>
    <trip id="veh109" depart="346.23" from="1101405293" to="295445243" departLane="best" type="veh_passenger" departSpeed="max"/>
    <trip id="veh110" depart="349.40" from="1052757284#0" to="699211935#2" departLane="best" type="veh_passenger"/>
    <trip id="veh111" depart="352.58" from="153689810#0" to="24968394#4" departLane="best" type="veh_passenger"/>
    <trip id="veh112" depart="355.76" from="690429978#7" to="84575572#1" departLane="best" type="veh_passenger"/>
    <trip id="veh113" depart="358.93" from="1141076641#1" to="-1152640372#5" departLane="best" type="veh_passenger"/>
    <trip id="veh114" depart="362.11" from="1141076639" to="598692947#2" departLane="best" type="veh_passenger" departSpeed="max"/>
    <trip id="veh115" depart="365.29" from="-312645512#2" to="-369223458#0" departLane="best" type="veh_passenger"/>
    <trip id="veh116" depart="368.46" from="-4613298#1" to="-320894149#0" departLane="best" type="veh_passenger"/>
    <trip id="veh117" depart="371.64" from="29007532" to="-1052675228" departLane="best" type="veh_passenger" departSpeed="max"/>
    <trip id="veh118" depart="374.81" from="-297373653#10" to="-1024034687#9" departLane="best" type="veh_passenger"/>
    <trip id="veh119" depart="377.99" from="29007532" to="1052758759" departLane="best" type="veh_passenger" departSpeed="max"/>
    <trip id="veh120" depart="381.17" from="-1052675176#2" to="-34580834#4" departLane="best" type="veh_passenger"/>
    <trip id="veh121" depart="384.34" from="-268002748#1" to="147657122#7" departLane="best" type="veh_passenger"/>
    <trip id="veh122" depart="387.52" from="1101404963#0" to="1098856742" departLane="best" type="veh_passenger"/>
    <trip id="veh123" depart="390.70" from="-8149654#0" to="-1052758514#0" departLane="best" type="veh_passenger"/>
    <trip id="veh124" depart="393.87" from="-740848375" to="238945930" departLane="best" type="veh_passenger"/>
    <trip id="veh125" depart="397.05" from="11483256" to="182690326#6" departLane="best" type="veh_passenger" departSpeed="max"/>
    <trip id="veh126" depart="400.23" from="-184077630#12" to="-1052758759" departLane="best" type="veh_passenger"/>
    <trip id="veh127" depart="403.40" from="-4613300#6" to="184077630#2" departLane="best" type="veh_passenger"/>
    <trip id="veh128" depart="406.58" from="4790871" to="1121001234" departLane="best" type="veh_passenger"/>
    <trip id="veh129" depart="409.75" from="184077630#10" to="850240180#1" departLane="best" type="veh_passenger"/>
    <trip id="veh130" depart="412.93" from="1133992729#12" to="-34580834#1" departLane="best" type="veh_passenger"/>
    <trip id="veh131" depart="416.11" from="717741321#4" to="24968394#4" departLane="best" type="veh_passenger"/>
    <trip id="veh132" depart="419.28" from="-740848375" to="-454285423" departLane="best" type="veh_passenger"/>
    <trip id="veh133" depart="422.46" from="-1052675227#6" to="-1138696726" departLane="best" type="veh_passenger"/>
    <trip id="veh134" depart="425.64" from="83146232#0" to="1414636728" departLane="best" type="veh_passenger"/>
    <trip id="veh135" depart="428.81" from="4610354#0" to="297373653#1" departLane="best" type="veh_passenger"/>
    <trip id="veh136" depart="431.99" from="4613293#0" to="1138687769" departLane="best" type="veh_passenger"/>
    <trip id="veh137" depart="435.17" from="-493008123#0" to="690429978#8" departLane="best" type="veh_passenger"/>
    <trip id="veh138" depart="438.34" from="1212138995#1" to="1052758759" departLane="best" type="veh_passenger"/>
    <trip id="veh139" depart="441.52" from="1140689523#1" to="1024034687#2" departLane="best" type="veh_passenger"/>
    <trip id="veh140" depart="444.69" from="-1140689523#1" to="-1098856683#0" departLane="best" type="veh_passenger"/>
    <trip id="veh141" depart="447.87" from="-1140771901#3" to="4790822" departLane="best" type="veh_passenger"/>
    <trip id="veh142" depart="451.05" from="-981295180" to="-1052675227#2" departLane="best" type="veh_passenger"/>
    <trip id="veh143" depart="454.22" from="23294727#1" to="493008124#1" departLane="best" type="veh_passenger"/>
    <trip id="veh144" depart="457.40" from="-981295183#0" to="717741321#3" departLane="best" type="veh_passenger"/>
    <trip id="veh145" depart="460.58" from="-102984483#1" to="-180331460" departLane="best" type="veh_passenger"/>
    <trip id="veh146" depart="463.75" from="1133992729#3" to="24914141#1" departLane="best" type="veh_passenger"/>
    <trip id="veh147" depart="466.93" from="1157444126" to="-1020468799" departLane="best" type="veh_passenger"/>
    <trip id="veh148" depart="470.11" from="1052758514#0" to="24684997#0" departLane="best" type="veh_passenger"/>
    <trip id="veh149" depart="473.28" from="-4606218#0" to="-23852056#1" departLane="best" type="veh_passenger"/>
    <trip id="veh150" depart="476.46" from="238682696#3" to="1133761609#0" departLane="best" type="veh_passenger"/>
    <trip id="veh151" depart="479.64" from="881921235#0" to="717741321#2" departLane="best" type="veh_passenger"/>
    <trip id="veh152" depart="482.81" from="-23294727#0" to="1101404342#0" departLane="best" type="veh_passenger"/>
    <trip id="veh153" depart="485.99" from="-1140771916#1" to="-4613299#3" departLane="best" type="veh_passenger" departSpeed="max"/>
    <trip id="veh154" depart="489.16" from="1098856742" to="312924130" departLane="best" type="veh_passenger"/>
    <trip id="veh155" depart="492.34" from="-1323456348#4" to="238945930" departLane="best" type="veh_passenger"/>
    <trip id="veh156" depart="495.52" from="1052675177#2" to="32320374#0" departLane="best" type="veh_passenger"/>
    <trip id="veh157" depart="498.69" from="26652030#0" to="-24684997#1" departLane="best" type="veh_passenger"/>
    <trip id="veh158" depart="501.87" from="297373653#12" to="1024034686#0" departLane="best" type="veh_passenger"/>
    <trip id="veh159" depart="505.05" from="-699211935#2" to="1152640372#3" departLane="best" type="veh_passenger" departSpeed="max"/>
    <trip id="veh160" depart="508.22" from="-46138135#2" to="1052675227#4" departLane="best" type="veh_passenger"/>
    <trip id="veh161" depart="511.40" from="1410118066#1" to="-34580834#0" departLane="best" type="veh_passenger"/>
    <trip id="veh162" depart="514.58" from="4613112" to="-4606258#0" departLane="best" type="veh_passenger" departSpeed="max"/>
    <trip id="veh163" depart="517.75" from="268002748#0" to="73310497#3" departLane="best" type="veh_passenger" departSpeed="max"/>
    <trip id="veh164" depart="520.93" from="-22036538#0" to="1119855803#1" departLane="best" type="veh_passenger"/>
    <trip id="veh165" depart="524.10" from="-1397609462" to="699211935#2" departLane="best" type="veh_passenger" departSpeed="max"/>
    <trip id="veh166" depart="527.28" from="-699211935#2" to="1151940481#0" departLane="best" type="veh_passenger" departSpeed="max"/>
    <trip id="veh167" depart="530.46" from="8149654#12" to="-147657122#7" departLane="best" type="veh_passenger"/>
    <trip id="veh168" depart="533.63" from="-1140689523#2" to="295445243" departLane="best" type="veh_passenger"/>
    <trip id="veh169" depart="536.81" from="-1101405168" to="-1323456348#4" departLane="best" type="veh_passenger" departSpeed="max"/>
    <trip id="veh170" depart="539.99" from="-4296469#1" to="-1024034687#5" departLane="best" type="veh_passenger"/>
    <trip id="veh171" depart="543.16" from="-847103786#2" to="-1101405165#1" departLane="best" type="veh_passenger"/>
    <trip id="veh172" depart="546.34" from="-1052758759" to="312654701#1" departLane="best" type="veh_passenger"/>
    <trip id="veh173" depart="549.52" from="-1095407474#1" to="-1225924290" departLane="best" type="veh_passenger"/>
    <trip id="veh174" depart="552.69" from="102983787#0" to="44122832#2" departLane="best" type="veh_passenger"/>
    <trip id="veh175" depart="555.87" from="-312645512#2" to="1024034687#2" departLane="best" type="veh_passenger"/>
    <trip id="veh176" depart="559.05" from="717177007#11" to="-1138696720#0" departLane="best" type="veh_passenger"/>
    <trip id="veh177" depart="562.22" from="4610354#3" to="268002748#2" departLane="best" type="veh_passenger"/>
    <trip id="veh178" depart="565.40" from="1100646994" to="267542609#2" departLane="best" type="veh_passenger" departSpeed="max"/>
    <trip id="veh179" depart="568.57" from="1104460751#1" to="4606214" departLane="best" type="veh_passenger"/>
    <trip id="veh180" depart="571.75" from="-180331460" to="182690326#8" departLane="best" type="veh_passenger"/>
    <trip id="veh181" depart="574.93" from="-699211935#2" to="-740848375" departLane="best" type="veh_passenger" departSpeed="max"/>
    <trip id="veh182" depart="578.10" from="-4606263#0" to="-1052756577" departLane="best" type="veh_passenger"/>
    <trip id="veh183" depart="581.28" from="-1151940480" to="24968394#4" departLane="best" type="veh_passenger" departSpeed="max"/>
    <trip id="veh184" depart="584.46" from="1101405293" to="184077626#0" departLane="best" type="veh_passenger" departSpeed="max"/>
    <trip id="veh185" depart="587.63" from="390614076#0" to="847103786#0" departLane="best" type="veh_passenger"/>
    <trip id="veh186" depart="590.81" from="44122832#1" to="4606263#1" departLane="best" type="veh_passenger"/>
    <trip id="veh187" depart="593.99" from="25134073" to="-31619761#0" departLane="best" type="veh_passenger" departSpeed="max"/>
    <trip id="veh188" depart="597.16" from="44122832#1" to="1414671927" departLane="best" type="veh_passenger"/>
    <trip id="veh189" depart="600.34" from="312654706#0" to="312651884#7" departLane="best" type="veh_passenger"/>
    <trip id="veh190" depart="603.51" from="-312645512#2" to="-112128825" departLane="best" type="veh_passenger"/>
    <trip id="veh191" depart="606.69" from="36689634#0" to="24968394#4" departLane="best" type="veh_passenger"/>
    <trip id="veh192" depart="609.87" from="-1052675177#2" to="-1098856683#0" departLane="best" type="veh_passenger"/>
    <trip id="veh193" depart="613.04" from="1101404336" to="24914141#1" departLane="best" type="veh_passenger"/>
    <trip id="veh194" depart="616.22" from="-1413812166#2" to="295445243" departLane="best" type="veh_passenger"/>
    <trip id="veh195" depart="619.40" from="-881921235#0" to="24914141#1" departLane="best" type="veh_passenger"/>
    <trip id="veh196" depart="622.57" from="-4613287" to="-320894149#2" departLane="best" type="veh_passenger"/>
    <trip id="veh197" depart="625.75" from="-16571799#8" to="267542610#1" departLane="best" type="veh_passenger"/>
    <trip id="veh198" depart="628.93" from="184429424#1" to="-112128825" departLane="best" type="veh_passenger"/>
    <trip id="veh199" depart="632.10" from="-1323456348#0" to="4606218#0" departLane="best" type="veh_passenger"/>
    <trip id="veh200" depart="635.28" from="-4606230#0" to="699211935#2" departLane="best" type="veh_passenger"/>
    <trip id="veh201" depart="638.45" from="8149654#8" to="41927333#1" departLane="best" type="veh_passenger"/>
    <trip id="veh202" depart="641.63" from="-147657122#3" to="-1141519049" departLane="best" type="veh_passenger"/>
    <trip id="veh203" depart="644.81" from="4606230#0" to="1098856696" departLane="best" type="veh_passenger"/>
    <trip id="veh204" depart="647.98" from="-1095165529" to="-11483256" departLane="best" type="veh_passenger" departSpeed="max"/>
    <trip id="veh205" depart="651.16" from="-4613300#1" to="-34580834#5" departLane="best" type="veh_passenger"/>
    <trip id="veh206" depart="654.34" from="-1095407474#2" to="309300321" departLane="best" type="veh_passenger"/>
    <trip id="veh207" depart="657.51" from="-1122497068" to="-4606258#2" departLane="best" type="veh_passenger"/>
    <trip id="veh208" depart="660.69" from="29007532" to="312654701#1" departLane="best" type="veh_passenger" departSpeed="max"/>
    <trip id="veh209" depart="663.87" from="373389574#1" to="-32320374#1" departLane="best" type="veh_passenger"/>
    <trip id="veh210" depart="667.04" from="4606218#0" to="-1052756578#0" departLane="best" type="veh_passenger"/>
    <trip id="veh211" depart="670.22" from="-102984483#0" to="-4613299#2" departLane="best" type="veh_passenger"/>
    <trip id="veh212" depart="673.40" from="102984483#0" to="8149654#1" departLane="best" type="veh_passenger"/>
    <trip id="veh213" depart="676.57" from="1410118066#0" to="1098856683#3" departLane="best" type="veh_passenger" departSpeed="max"/>
    <trip id="veh214" depart="679.75" from="4615003#5" to="201408461#2" departLane="best" type="veh_passenger"/>
    <trip id="veh215" depart="682.92" from="1024034687#1" to="717177006#1" departLane="best" type="veh_passenger"/>
    <trip id="veh216" depart="686.10" from="73310501#0" to="-1101405165#1" departLane="best" type="veh_passenger"/>
    <trip id="veh217" depart="689.28" from="4613293#1" to="1105526087" departLane="best" type="veh_passenger"/>
    <trip id="veh218" depart="692.45" from="1133992729#1" to="4613299#2" departLane="best" type="veh_passenger"/>
    <trip id="veh219" depart="695.63" from="1101404336" to="1101404966#0" departLane="best" type="veh_passenger"/>
    <trip id="veh220" depart="698.81" from="-36892597#2" to="267542609#2" departLane="best" type="veh_passenger"/>
    <trip id="veh221" depart="701.98" from="309655252" to="24968394#4" departLane="best" type="veh_passenger"/>
    <trip id="veh222" depart="705.16" from="1133992729#4" to="-1157396753" departLane="best" type="veh_passenger"/>
    <trip id="veh223" depart="708.34" from="-312645512#2" to="-1323456348#2" departLane="best" type="veh_passenger"/>
    <trip id="veh224" depart="711.51" from="-16571799#0" to="1151940481#1" departLane="best" type="veh_passenger"/>
    <trip id="veh225" depart="714.69" from="319339413#1" to="295445243" departLane="best" type="veh_passenger"/>
    <trip id="veh226" depart="717.86" from="8149654#11" to="850240180#1" departLane="best" type="veh_passenger"/>
    <trip id="veh227" depart="721.04" from="49180827#4" to="1141076641#1" departLane="best" type="veh_passenger"/>
    <trip id="veh228" depart="724.22" from="4610354#0" to="1414671927" departLane="best" type="veh_passenger"/>
    <trip id="veh229" depart="727.39" from="319339413#4" to="390614076#4" departLane="best" type="veh_passenger"/>
    <trip id="veh230" depart="730.57" from="4790871" to="1141076640#1" departLane="best" type="veh_passenger"/>
    <trip id="veh231" depart="733.75" from="-1140760605#1" to="-1101405300" departLane="best" type="veh_passenger"/>
    <trip id="veh232" depart="736.92" from="297373653#14" to="184430983#1" departLane="best" type="veh_passenger"/>
    <trip id="veh233" depart="740.10" from="4610355#10" to="-184430983#2" departLane="best" type="veh_passenger"/>
    <trip id="veh234" depart="743.28" from="4484427#0" to="896703365" departLane="best" type="veh_passenger"/>
    <trip id="veh235" depart="746.45" from="268002748#0" to="-1133992729#4" departLane="best" type="veh_passenger" departSpeed="max"/>
    <trip id="veh236" depart="749.63" from="390614076#0" to="42348713#0" departLane="best" type="veh_passenger"/>
    <trip id="veh237" depart="752.80" from="1052675227#0" to="4790871" departLane="best" type="veh_passenger"/>
    <trip id="veh238" depart="755.98" from="1052675176#2" to="44122832#2" departLane="best" type="veh_passenger"/>
    <trip id="veh239" depart="759.16" from="-46138135#2" to="31145647#1" departLane="best" type="veh_passenger"/>
    <trip id="veh240" depart="762.33" from="1094434971" to="4613300#5" departLane="best" type="veh_passenger"/>
    <trip id="veh241" depart="765.51" from="112128418#0" to="4610352#1" departLane="best" type="veh_passenger" departSpeed="max"/>
    <trip id="veh242" depart="768.69" from="83146232#1" to="1133761618#1" departLane="best" type="veh_passenger"/>
    <trip id="veh243" depart="771.86" from="-184077630#6" to="34580834#3" departLane="best" type="veh_passenger"/>
    <trip id="veh244" depart="775.04" from="-268002748#1" to="184077630#10" departLane="best" type="veh_passenger"/>